version 2
run General-0-20180514-18:47:14-129188
attr configname General
attr datetime 20180514-18:47:14
attr experiment General
attr inifile omnetpp.ini
attr iterationvars ""
attr iterationvarsf ""
attr measurement ""
attr network Network
attr processid 129188
attr repetition 0
attr replication #0
attr resultdir results
attr runnumber 0
attr seedset 0
param **.clone.changeMsgName false
param **.source.numJobs 2000
param **.source.interArrivalTime exponential(2000.0s)
param **.queue10.capacity -1
param **.queue9.capacity -1
param **.queue8.capacity -1
param **.queue7.capacity -1
param **.queue6.capacity -1
param **.queue5.capacity -1
param **.queue4.capacity -1
param **.queue3.capacity -1
param **.queue2.capacity -1
param **.queue1.capacity -1
param **.queue.capacity -1
param **.server10.serviceTime exponential(30.0s)
param **.server9.serviceTime exponential(30.0s)
param **.server8.serviceTime exponential(30.0s)
param **.server7.serviceTime exponential(30.0s)
param **.server6.serviceTime exponential(30.0s)
param **.server5.serviceTime exponential(600.0s)
param **.server4.serviceTime exponential(30.0s)
param **.server3.serviceTime exponential(30.0s)
param **.server2.serviceTime exponential(30.0s)
param **.server1.serviceTime exponential(30.0s)
param **.server.serviceTime exponential(600.0s)
param **.delay10.delay exponential(450.0s)
param **.delay9.delay exponential(90.0s)
param **.delay8.delay exponential(30.0s)
param **.delay7.delay exponential(30.0s)
param **.delay6.delay exponential(90.0s)
param **.delay5.delay exponential(90s)
param **.delay4.delay exponential(30.0s)
param **.delay3.delay exponential(30.0s)
param **.delay2.delay exponential(90.0s)
param **.delay1.delay exponential(450.0s)
param **.delay.delay exponential(5.0s)

vector 0 Network.queue queueLength:vector ETV
attr interpolationmode sample-hold
attr title "queue length, vector"
vector 1 Network.queue1 queueLength:vector ETV
attr interpolationmode sample-hold
attr title "queue length, vector"
vector 2 Network.queue2 queueLength:vector ETV
attr interpolationmode sample-hold
attr title "queue length, vector"
vector 3 Network.queue3 queueLength:vector ETV
attr interpolationmode sample-hold
attr title "queue length, vector"
vector 4 Network.queue4 queueLength:vector ETV
attr interpolationmode sample-hold
attr title "queue length, vector"
vector 5 Network.queue5 queueLength:vector ETV
attr interpolationmode sample-hold
attr title "queue length, vector"
vector 6 Network.queue6 queueLength:vector ETV
attr interpolationmode sample-hold
attr title "queue length, vector"
vector 7 Network.queue7 queueLength:vector ETV
attr interpolationmode sample-hold
attr title "queue length, vector"
vector 8 Network.queue8 queueLength:vector ETV
attr interpolationmode sample-hold
attr title "queue length, vector"
vector 9 Network.queue9 queueLength:vector ETV
attr interpolationmode sample-hold
attr title "queue length, vector"
vector 10 Network.queue10 queueLength:vector ETV
attr interpolationmode sample-hold
attr title "queue length, vector"
vector 11 Network.sink lifeTime:vector ETV
attr interpolationmode none
attr title "lifetime of arrived jobs, vector"
attr unit s
0	0	0	0
0	325	15206.464071796923	1
0	329	15242.381598847446	2
0	330	15323.555773443053	1
0	333	15384.176638628431	0
0	490	17187.701787724386	1
0	513	17633.595514379122	0
0	864	35092.816797020572	1
0	865	36002.143555672538	0
0	1065	43905.555649060953	1
0	1093	44715.424603779241	0
0	1548	66695.254854327806	1
0	1549	67255.726988394051	0
0	1555	67273.218522399953	1
0	1569	67924.659441538252	0
0	1749	71910.955877222304	1
0	1750	71916.65383888613	0
0	1786	72259.429116359404	1
0	1802	72602.931066357415	0
0	1972	75881.898627994772	1
0	1973	75971.674946985486	0
0	1991	76282.788314120208	1
0	2013	76432.752493420104	0
0	2405	89962.401742118069	1
0	2411	90050.10737117945	0
0	3402	130067.444116859764	1
0	3415	130552.585488592896	0
0	3511	132133.245726793779	1
0	3512	132176.870285305612	0
0	3885	155579.041957920649	1
0	3889	155784.222489880927	2
0	3893	156118.137066577924	3
0	3894	156183.208473302004	2
0	3897	156205.556128683888	1
0	3925	156519.01367469254	0
0	3947	156843.371611790906	1
0	3952	157085.498425932393	0
0	4656	178022.573816893988	1
0	4677	178220.58256473436	0
0	4683	178317.647868610788	1
0	4709	178640.985190029397	0
0	5139	190947.778046837823	1
0	5143	191571.977412255655	2
0	5144	191790.501567995035	1
0	5147	191817.510256492126	0
0	5153	191836.709278758085	1
0	5182	192277.976610314341	0
0	5210	192596.906853993106	1
0	5216	192664.962112927168	0
0	6120	229530.44998602024	1
0	6132	229599.658056405337	2
0	6146	229782.051320764619	3
0	6147	229852.438612402276	2
0	6165	230152.069610162179	3
0	6176	230416.691415086782	2
0	6187	230688.079029491396	1
0	6198	230877.448860602526	2
0	6214	231075.840801422313	1
0	6257	231874.334084026953	0
0	6564	242145.800059803716	1
0	6565	242252.045064197813	0
0	6586	242597.647389235993	1
0	6620	243382.857898820415	2
0	6626	244195.683935938325	1
0	6655	244877.773541376344	2
0	6656	245773.990556944493	1
0	6662	245961.739990668215	2
0	6728	246685.729254552684	1
0	6741	247424.293882975704	0
0	6792	248054.920088051909	1
0	6795	248172.504463197535	0
0	7273	259075.882444629075	1
0	7274	259304.87171806813	0
0	7476	272180.327548295261	1
0	7477	272944.395269967347	0
0	7972	288769.878592063022	1
0	7980	288966.728226940066	0
0	8103	292564.85983130041	1
0	8104	293012.926525035091	0
0	8509	311190.632530531692	1
0	8533	311899.451539968378	0
0	8988	323131.186220944902	1
0	9011	324882.856363189301	0
0	9917	352663.89966610585	1
0	9950	352852.47894893099	0
0	10053	354832.4733481201	1
0	10057	354866.713612499501	0
0	10098	355787.395361362809	1
0	10102	355850.095535706477	2
0	10153	357279.101409059698	3
0	10154	357331.369048722888	2
0	10175	357743.363322356475	1
0	10243	358626.386821542396	0
0	10549	369156.140411512189	1
0	10558	370071.131965249864	2
0	10559	371085.500507084126	1
0	10575	371824.255381271327	0
0	10814	375342.84313319936	1
0	10823	375397.74478739568	2
0	10850	375644.484157850349	3
0	10859	375802.616714015434	2
0	10926	376432.853515403916	1
0	10936	377054.470204288524	0
0	10967	377413.920507519091	1
0	10986	377568.765699645743	0
0	11181	381414.067541996598	1
0	11185	381864.949910669227	2
0	11186	382116.759564017428	1
0	11234	384112.852384492335	0
0	11434	388118.328454706955	1
0	11440	388373.604321262393	0
0	11575	393182.632679018096	1
0	11581	393980.613824410312	0
0	11660	395945.763804319257	1
0	11663	395952.724978092738	0
0	11919	400330.171148230189	1
0	11920	400336.623528391485	0
0	11926	400376.528871343874	1
0	11935	400719.411945024287	0
0	11978	400845.160522372965	1
0	12045	401326.116843559899	2
0	12061	401608.049691473074	1
0	12136	402749.432328209447	0
0	12579	424300.336364732185	1
0	12580	424318.953790646265	0
0	12911	433069.811132868871	1
0	12917	433285.372598488352	0
0	13404	461617.538348324401	1
0	13405	462278.126889626478	0
0	13575	475293.557087042043	1
0	13576	475553.77876918039	0
0	13689	478584.526315130986	1
0	13690	479021.633354290615	0
0	13741	480125.572922940207	1
0	13747	480419.769875022471	0
0	13838	481986.74324977863	1
0	13851	482385.495007109427	0
0	13899	483181.105530988843	1
0	13975	485116.832938233939	0
0	14373	507152.395902443184	1
0	14377	507241.58038275149	2
0	14378	507419.705735773204	1
0	14381	507807.005705452827	0
0	14392	508260.822671837146	1
0	14436	508483.692197234332	2
0	14437	508523.848032236484	1
0	14440	508539.168065109924	0
0	14715	522905.08087235639	1
0	14716	523524.015750997707	0
0	14829	526875.062732168912	1
0	14830	527083.899784920925	0
0	14995	530821.123329416462	1
0	14999	531143.281769322205	2
0	15008	531331.418351905957	3
0	15009	531491.185094619132	2
0	15035	531898.700421978369	1
0	15081	532596.091420286539	0
0	15176	534229.678463944528	1
0	15202	534748.505029919203	0
0	15230	534999.816558209974	1
0	15231	535063.570437082195	0
0	15399	540207.55217162246	1
0	15400	540423.52847338026	0
0	16938	597908.413080628752	1
0	16942	598024.972758006379	2
0	16943	598063.765530098392	1
0	16949	598086.873547102265	2
0	16968	598571.758524377034	1
0	16984	598821.429228913889	0
0	17131	600840.104996663081	1
0	17135	601041.763112570522	0
0	17168	601665.976046567046	1
0	17175	601737.636430027877	0
0	17622	625090.615289752485	1
0	17623	625192.508089520417	0
0	17629	625321.718069816478	1
0	17653	625761.852189598043	0
0	17716	627011.042668971752	1
0	17743	627214.768219013015	0
0	17964	634372.153766372655	1
0	17968	635033.032066884381	2
0	17969	635215.52178551231	1
0	17972	635250.675662632634	0
0	18685	668142.600332894303	1
0	18694	668209.137319091278	0
0	18807	670990.882881938417	1
0	18820	672236.360560872023	0
0	18871	673782.337079685388	1
0	18878	673884.691384760394	2
0	18881	674250.261245500817	1
0	18887	674266.430876351792	2
0	18888	674690.126027118623	1
0	18934	675341.816425824606	0
0	19523	692422.458740534808	1
0	19524	692428.928784105433	0
0	19847	700391.774184770886	1
0	19856	700427.018899710043	2
0	19857	700571.219936356113	1
0	19860	700811.167324938099	0
0	20120	704414.731808071976	1
0	20126	705195.736067092561	0
0	20142	705770.985064778868	1
0	20161	706108.885923311886	2
0	20187	707407.390857732632	1
0	20195	707597.827489705592	0
0	20201	707838.390420686301	1
0	20215	707924.377998829554	2
0	20254	708409.479773467064	1
0	20259	708486.327539648732	0
0	20702	721804.894868204565	1
0	20711	722468.917897824316	2
0	20735	723546.951843891457	1
0	20751	723827.127975403444	0
0	20928	726488.199345260452	1
0	20932	727581.963237117408	2
0	20933	728057.227067890951	1
0	20936	728555.208585603599	0
0	21327	742939.70042726449	1
0	21328	743829.160647880739	0
0	21453	747566.065051430691	1
0	21464	747824.873929484806	0
0	21671	750791.436828599134	1
0	21695	751259.884075703834	0
0	21946	754890.526370698375	1
0	21977	755551.776316477408	0
0	22145	760204.729808124129	1
0	22151	760648.640197690108	0
0	22259	762101.736431140498	1
0	22260	762136.789871691396	0
0	22375	763300.982821378834	1
0	22387	763653.088858007051	2
0	22393	763752.777508895807	1
0	22411	763922.639203692137	0
0	22668	769792.39215281123	1
0	22669	769819.956242099873	0
0	23181	791551.516124014306	1
0	23184	791736.873130098164	0
0	23386	797055.115995950046	1
0	23387	797098.178362356672	0
0	23607	800486.033190124277	1
0	23658	801201.840487262058	0
0	23892	805560.960193910832	1
0	23896	805929.293324460954	2
0	23897	806644.682201461716	1
0	23926	807819.984637431275	2
0	23927	807905.020754897612	1
0	23953	808590.814032769297	2
0	23959	808894.619758131538	1
0	24009	809449.753202634844	0
0	24519	834591.977522503742	1
0	24523	835497.896826332772	2
0	24524	837032.298501552755	1
0	24527	837033.494067570674	0
0	24955	862541.635201098678	1
0	24978	863616.879994368408	0
0	25260	870425.345052414134	1
0	25261	871804.423400225924	0
0	25347	874153.49805705402	1
0	25348	874403.151692471771	0
0	25624	888902.162172419394	1
0	25630	888989.150002146184	0
0	25810	892723.030884023585	1
0	25834	893273.045980821221	2
0	25838	893525.301625952074	3
0	25839	895012.851483076429	2
0	25864	895348.964360570323	1
0	25868	895349.360226935008	2
0	25890	895732.677129683159	1
0	25915	896056.731441174788	0
0	26229	906322.455918227027	1
0	26233	907409.23996638684	2
0	26234	907517.337715993794	1
0	26237	907720.951179886886	0
0	26340	909780.876795067603	1
0	26359	910401.358535943549	0
0	26920	930236.131928253847	1
0	26921	930708.929265271685	0
0	27141	938054.452133153682	1
0	27142	938606.987103003901	0
0	27337	943003.886723312447	1
0	27346	943155.758520295373	2
0	27347	943205.65979793807	1
0	27355	943775.225419305694	0
0	27711	956042.321233191449	1
0	27715	956276.788914660745	2
0	27716	956352.380877120375	1
0	27764	957690.4543654002	0
0	28167	972407.843924660232	1
0	28171	972918.119758563836	2
0	28172	972974.96256470278	1
0	28198	973711.504487004334	0
0	28255	974957.133048908407	1
0	28259	975237.49946863003	2
0	28296	975591.814395642467	1
0	28329	975849.051404340999	0
0	28360	976076.268992719408	1
0	28436	977971.813572689125	0
0	28625	985755.975731052125	1
0	28646	986346.495905676002	0
0	28657	986654.844857056423	1
0	28711	988304.697035496596	0
0	29815	1034399.067373398308	1
0	29821	1035356.570236278423	0
0	30080	1042634.094881209983	1
0	30153	1043890.601248279787	0
0	30209	1045271.64544603552	1
0	30215	1045374.51258416462	0
0	30447	1051622.498321955052	1
0	30451	1052497.859686784487	2
0	30452	1052750.233042097127	1
0	30458	1052985.12854960782	2
0	30459	1053215.514713377407	1
0	30510	1054375.688106106401	0
0	30824	1067260.428417115333	1
0	30850	1068208.172569206774	2
0	30851	1069002.316586736575	1
0	30854	1069005.001339480669	0
0	31344	1080479.015349914107	1
0	31365	1080967.340655650149	2
0	31366	1081321.478544233862	1
0	31390	1081586.21696055022	2
0	31407	1081819.412746699023	3
0	31413	1081888.991420593311	4
0	31477	1082520.333044154125	5
0	31485	1082727.508494440789	4
0	31488	1082822.416854843317	3
0	31491	1082881.667064391258	2
0	31527	1083129.9766466006	1
0	31550	1083197.975514028803	0
0	32271	1109248.293612480192	1
0	32272	1109265.076102912174	0
0	32529	1117011.087823574371	1
0	32530	1117187.765694937727	0
0	32898	1128383.561982419042	1
0	32902	1128517.359675015753	2
0	32903	1128605.22617241844	1
0	32909	1129128.186479726068	2
0	32933	1129344.622708039039	1
0	33013	1130407.236435200131	0
0	33183	1140085.159903496432	1
0	33187	1140182.835822151198	2
0	33188	1140987.253527968151	1
0	33191	1141060.863022630084	0
0	33354	1145503.590630807772	1
0	33355	1145774.177830851494	0
0	33783	1169546.684986454553	1
0	33791	1169805.547258579107	0
0	34204	1189061.174937077028	1
0	34210	1189728.187771641779	0
0	34405	1201921.685479200553	1
0	34438	1202788.913567345632	0
0	34950	1213624.381483220908	1
0	34951	1213938.576539953847	0
0	35210	1223157.427246711587	1
0	35211	1223198.562641597777	0
0	35349	1225296.112250941563	1
0	35350	1226094.37802391161	0
0	36006	1250162.749270068757	1
0	36007	1250235.206005549025	0
0	36018	1250428.752764259765	1
0	36024	1250582.826916955577	0
0	36040	1250716.575381152664	1
0	36046	1250832.066321852072	2
0	36117	1251838.511890964259	1
0	36145	1252488.082442781886	0
0	36449	1259100.051087514198	1
0	36493	1260237.410987319626	2
0	36494	1260307.021504582098	1
0	36520	1261257.558893476643	0
0	36560	1262033.816836316637	1
0	36581	1262269.139168390835	0
0	36774	1265773.734479864128	1
0	36775	1266543.580874139242	0
0	36995	1269751.297690321045	1
0	37006	1270856.924278233569	2
0	37010	1270991.799498873783	3
0	37014	1271437.981570752399	4
0	37015	1271545.16975622161	3
0	37041	1272886.59521238095	2
0	37044	1273175.658901910937	1
0	37091	1273656.263509607853	0
0	37097	1273713.20992982058	1
0	37107	1274777.566832457325	2
0	37148	1275290.378547205631	1
0	37157	1275373.623558252246	2
0	37238	1276074.847054815101	1
0	37258	1276225.389704291478	0
0	37743	1296325.88570033552	1
0	37744	1296604.409535708037	0
0	37750	1296669.639444522573	1
0	37774	1297533.9540908765	0
0	37785	1297959.066138523404	1
0	37811	1298361.910225760929	0
0	38028	1312086.514482559699	1
0	38029	1312311.920157980479	0
0	38209	1322877.011210666193	1
0	38220	1322926.645632443551	0
0	38248	1323155.042936591037	1
0	38277	1323408.497383654833	2
0	38278	1323432.80698632917	1
0	38281	1323493.948030970062	0
0	38293	1323629.319894119077	1
0	38296	1323656.410953828822	0
0	38332	1323955.745966923177	1
0	38335	1323983.89500168462	0
0	38923	1338481.141456610807	1
0	38941	1339543.812514729959	0
0	38990	1340691.253358811129	1
0	38993	1340843.409686821984	0
0	39512	1383392.547544852347	1
0	39513	1383432.252481181571	0
0	39768	1389709.799363737357	1
0	39769	1390113.60199613958	0
0	39909	1398551.326507160794	1
0	39910	1399297.313329317022	0
0	40303	1417350.538503158565	1
0	40304	1417376.094559940564	0
0	40315	1417634.992337867875	1
0	40316	1417820.53049033099	0
0	40531	1426788.651747233043	1
0	40532	1426897.87696896716	0
0	40821	1446470.457017526153	1
0	40822	1446905.422479492617	0
0	40848	1447596.653534698843	1
0	40854	1447676.058409618728	0
0	40862	1447817.815849799761	1
0	40873	1447947.229916191638	0
0	41341	1461654.805280558249	1
0	41382	1462447.970314100716	0
0	41505	1465540.586082909358	1
0	41506	1466132.348413001955	0
0	41644	1469398.155049823821	1
0	41650	1469625.101768696117	0
0	41800	1472675.320334189147	1
0	41801	1472722.213838386502	0
0	42221	1482669.102173037274	1
0	42247	1482982.094039678813	0
0	42930	1511536.765465789279	1
0	42931	1511770.359027266069	0
0	43044	1522967.428007593246	1
0	43045	1523450.392777099978	0
0	43386	1537703.321602817989	1
0	43387	1538137.793594938846	0
0	43428	1538773.007877885644	1
0	43429	1538826.013911894415	0
0	43758	1544835.202000341464	1
0	43759	1544896.325670840586	0
0	43906	1546596.005645896028	1
0	43930	1547158.554872064852	0
0	43987	1548607.125647508	1
0	43988	1548971.297072144069	0
0	44283	1554526.997280491293	1
0	44289	1554605.973190419591	0
0	44754	1587083.386358155016	1
0	44755	1587651.080708796964	0
0	44955	1591921.410948403803	1
0	44959	1591974.35242008924	2
0	44987	1593007.542772425255	1
0	44993	1593051.063597865559	2
0	44994	1593283.882410785691	1
0	45012	1593431.617757059906	0
0	45183	1595706.739941760292	1
0	45208	1596490.977024478468	0
0	45212	1596491.866017620604	1
0	45224	1596955.199612663368	2
0	45225	1596968.815708206217	1
0	45290	1598011.51539953025	0
0	45411	1600044.456415739181	1
0	45412	1600123.487193895944	0
0	45832	1618128.430064336699	1
0	45836	1618249.992718400346	2
0	45837	1618749.290359674252	1
0	45840	1618829.367033522216	0
0	46055	1624915.399728141623	1
0	46061	1625198.073888375885	0
0	46090	1625863.083547271096	1
0	46121	1626684.613225430271	0
0	46127	1626711.251955989666	1
0	46133	1626973.434003812916	2
0	46157	1627820.59654168364	1
0	46180	1628905.170693604925	0
0	46350	1632924.436035650285	1
0	46354	1633572.973734320747	2
0	46358	1634298.700247046811	3
0	46359	1634490.031051330984	2
0	46372	1635007.361214160527	1
0	46388	1635035.870000979261	0
0	46427	1635390.302997954743	1
0	46492	1635887.777371310819	0
0	46920	1653665.335847526545	1
0	46921	1653982.532140072917	0
0	46927	1654555.435578596091	1
0	46938	1654817.047030662416	0
0	47178	1662783.016797099592	1
0	47206	1663785.7945390446	0
0	47212	1663848.170510245246	1
0	47226	1664373.924138965372	2
0	47240	1664742.355144291	1
0	47283	1665310.157507192735	0
0	47490	1669818.846762455826	1
0	47494	1670050.071978810161	2
0	47495	1670225.038882420043	1
0	47498	1670381.236771177573	0
0	47661	1677685.84017411879	1
0	47662	1678008.379503754178	0
0	47668	1678098.696484618243	1
0	47675	1678427.803554040593	2
0	47718	1679278.467285275872	1
0	47721	1679355.426206166609	0
0	47732	1679524.676957960314	1
0	47733	1679640.832267607758	0
0	48117	1686723.87245921604	1
0	48118	1687014.563800304196	0
0	48268	1691612.78005698078	1
0	48316	1692532.303531864114	0
0	48573	1702053.810145986474	1
0	48574	1702087.996805464799	0
0	48580	1702682.687376310864	1
0	48604	1703121.733238873685	0
0	48858	1715203.022482699741	1
0	48859	1716707.495516502086	0
0	49200	1733944.99841319776	1
0	49201	1735037.049210920955	0
0	49255	1736158.484161765672	1
0	49261	1736457.569052080099	2
0	49262	1736775.416638772811	1
0	49268	1736781.126811963265	2
0	49294	1737193.215623461635	1
0	49297	1737230.799250000944	0
0	49656	1758307.223468805773	1
0	49657	1759348.35247919724	0
0	49703	1760602.927204098731	1
0	49712	1760656.787192851994	2
0	49770	1761469.488405721824	1
0	49773	1761472.784863574396	0
0	49807	1761947.077482498998	1
0	49828	1762690.763324788189	2
0	49862	1764275.148177534033	1
0	49893	1765841.56118539423	0
0	49993	1767749.606694410149	1
0	50022	1768220.271687365017	2
0	50033	1768544.019536687822	1
0	50061	1769521.21754514178	2
0	50062	1769750.583707363238	1
0	50065	1770093.292057553291	0
0	50370	1775845.128943392869	1
0	50374	1776006.624350334035	2
0	50377	1776149.006838352144	1
0	50400	1776633.433626075201	0
0	51475	1830646.463063358765	1
0	51481	1831689.297604126174	0
0	51765	1837402.827625493175	1
0	51766	1837565.336570644409	0
0	51968	1843712.545581693905	1
0	51982	1843865.088667012603	2
0	51993	1844304.269979376977	1
0	52046	1845685.025917913637	0
0	52057	1846060.228772193306	1
0	52076	1846369.764638185203	0
0	52335	1856719.830316575198	1
0	52339	1857912.78947951111	2
0	52343	1858634.395466232232	3
0	52344	1858907.664361145852	2
0	52347	1859281.367273501544	1
0	52395	1859994.502419067536	0
0	52620	1866606.796503750708	1
0	52621	1867023.036364461387	0
0	52632	1867144.492862281634	1
0	52673	1868756.618508873644	0
0	52701	1869758.59211190574	1
0	52740	1870929.732462856123	2
0	52759	1871112.640669539228	1
0	52764	1871214.79975854758	0
0	52850	1871624.991023056634	1
0	52851	1871716.383152557519	0
0	53418	1896277.729381173045	1
0	53419	1896581.008931825528	0
0	53482	1898428.941675118794	1
0	53519	1899098.051231073259	2
0	53537	1899522.136370890795	1
0	53545	1900169.652560052349	0
0	53703	1904051.34027335145	1
0	53704	1904610.252453512277	0
0	53961	1912473.621103382716	1
0	53974	1913154.623005620253	0
0	54209	1915859.975605660551	1
0	54210	1915899.047641285375	0
0	54595	1923662.980459968793	1
0	54606	1923815.388081986573	0
0	54974	1948032.987458356358	1
0	54980	1948196.761459878692	0
0	55242	1962822.491835841185	1
0	55243	1963888.546982913942	0
0	55249	1964167.289237629746	1
0	55250	1964323.670659902906	0
0	55256	1964631.80942364046	1
0	55302	1965176.035927108521	0
0	55755	1983370.39522337958	1
0	55759	1983613.125915722073	2
0	55760	1983668.728453539187	1
0	55789	1984423.913586408801	2
0	55790	1984915.108529833028	1
0	55793	1985234.840899150206	0
0	56382	2017677.776489383314	1
0	56386	2017691.638501816273	2
0	56387	2017970.892125124138	1
0	56398	2018264.675111415836	0
0	56793	2037582.441125665152	1
0	56834	2038025.474974805872	0
0	56927	2039260.603615011944	1
0	56953	2040251.014313789014	0
0	57408	2060597.804695779683	1
0	57409	2060696.353345076047	0
0	57579	2066542.571757102035	1
0	57580	2067087.233708699903	0
0	58149	2090921.538832312587	1
0	58150	2091189.739594525403	0
0	58201	2092300.729099401112	1
0	58210	2092702.963591080181	2
0	58211	2092997.136569408058	1
0	58214	2093175.991141295717	0
0	58434	2098672.092049504138	1
0	58435	2099066.21840597348	0
0	58892	2120934.627864479455	1
0	58901	2121293.381388197394	0
0	58964	2121577.68331643734	1
0	58973	2121716.501385513957	0
0	59289	2128398.798365311569	1
0	59290	2128487.089771474877	0
0	59430	2134523.260709250182	1
0	59451	2134819.171173883153	0
0	59889	2157519.750858829244	1
0	59915	2157962.30633048704	2
0	59916	2158010.955679809353	1
0	59947	2158526.996954531134	0
0	60201	2170278.885979082031	1
0	60202	2170575.091426232734	0
0	60315	2173469.797422506161	1
0	60316	2173669.112163569651	0
0	60322	2173819.329272854427	1
0	60326	2174206.385652000829	2
0	60350	2175261.845760069101	1
0	60363	2175530.782757220952	0
0	60386	2175771.677684930841	1
0	60410	2176734.874756527937	0
0	60657	2184905.308717400786	1
0	60658	2185220.607926990063	0
0	61051	2195338.917454363027	1
0	61052	2195358.716961168923	0
0	61284	2204190.113195181808	1
0	61285	2204808.19511387415	0
0	61296	2204999.410316924994	1
0	61315	2205429.779503381065	0
0	61490	2207766.068836764557	1
0	61513	2208476.060904417823	0
0	61599	2210552.076321914727	1
0	61602	2211432.474348347277	0
0	62020	2232948.49067816177	1
0	62026	2234302.261777588229	0
0	62139	2241871.779518254289	1
0	62140	2242273.427534404433	0
0	62146	2242393.158783012137	1
0	62152	2242682.913787397245	0
0	62204	2244052.4688877054	1
0	62222	2244313.171847367045	0
0	62369	2247218.691339837802	1
0	62415	2248340.702181850246	0
0	62652	2257746.743002604427	1
0	62656	2257966.41904096425	2
0	62657	2258049.029131004996	1
0	62660	2258057.95563222838	0
0	63021	2272907.857137001147	1
0	63022	2272956.95488113112	0
0	63165	2275708.646747302324	1
0	63166	2275913.86989424911	0
0	63240	2277324.065195691325	1
0	63246	2277438.038699369423	2
0	63279	2278395.416306761071	1
0	63290	2278682.160554076565	2
0	63314	2279338.647484754034	1
0	63322	2279438.661444010384	0
0	63367	2280090.080193352744	1
0	63423	2281208.408954624546	0
0	63708	2285589.424446669476	1
0	63711	2285767.0456481323	0
0	63757	2286411.712679343924	1
0	63791	2287114.483693609923	0
0	63797	2287125.699584322049	1
0	63810	2287440.899049557556	0
0	63914	2289576.383994336835	1
0	63930	2289681.134141833323	2
0	63931	2289702.30743940885	1
0	63982	2290939.421565038276	2
0	63998	2291425.268751942791	1
0	64001	2291509.11490380187	0
0	64025	2291992.144203376224	1
0	64051	2292398.42142789316	0
0	64167	2294048.07819879064	1
0	64225	2295031.430322853226	2
0	64226	2295074.569017029266	1
0	64237	2295355.507361176031	0
0	64533	2304700.744350780719	1
0	64537	2305231.230289929173	2
0	64538	2305580.428709568129	1
0	64546	2305677.907556322979	0
0	64578	2306028.927042921373	1
0	64623	2306582.743757974789	0
0	64875	2313270.08820836885	1
0	64876	2313506.982618635416	0
0	64937	2314980.864109194002	1
0	64941	2315239.946280291585	0
0	65787	2346303.307126638383	1
0	65788	2346524.975201439152	0
0	66642	2379537.724227643618	1
0	66643	2380011.090113401498	0
0	66840	2384622.027066971798	1
0	66841	2384675.95033459064	0
0	66882	2384992.545888159397	1
0	66884	2384995.212971573367	2
0	66905	2385594.47764338609	1
0	66935	2386213.112435715624	0
0	67098	2389723.424148045766	1
0	67099	2389819.540839816531	0
0	67217	2391786.596503237844	1
0	67238	2392051.07089751114	0
0	67383	2397680.602312363737	1
0	67387	2397755.398672585123	2
0	67388	2397912.889103532901	1
0	67414	2398897.443124236122	0
0	67953	2425924.995370418926	1
0	67957	2425977.180256996704	2
0	67958	2426623.916173670658	1
0	67967	2426956.689034158739	2
0	67983	2427141.149364920826	1
0	68001	2427463.879174289123	0
0	68057	2427877.01144290297	1
0	68096	2428324.757513916931	2
0	68112	2428716.08039361632	1
0	68132	2429240.158568569455	0
0	68865	2454278.431195843607	1
0	68866	2454722.08050645108	0
0	69566	2486998.313803235364	1
0	69577	2487123.776174193214	0
0	69757	2490390.780302819788	1
0	69801	2491012.324477474226	2
0	69834	2491504.078621013146	1
0	69837	2491516.84712511713	0
0	69876	2492277.888769983395	1
0	69892	2492484.308796772995	0
0	70312	2518645.727758747629	1
0	70321	2519838.175997538877	0
0	70461	2524402.460671430772	1
0	70462	2524931.913469945474	0
0	70988	2548146.078790781721	1
0	70999	2548360.393360088916	0
0	71015	2548521.892383707703	1
0	71022	2548575.210077546544	0
0	71648	2560373.769590929868	1
0	71649	2560443.285475055132	0
0	71655	2560570.936315869562	1
0	71656	2560601.113888365144	0
0	72000	2566995.180776567302	1
0	72001	2567553.297971875627	0
0	72007	2568344.237760993064	1
0	72011	2568615.326775524339	2
0	72012	2568695.944198327768	1
0	72015	2568720.8975187786	0
0	72228	2570870.146627987771	1
0	72229	2572790.450118372414	0
0	72686	2586391.753429293219	1
0	72697	2586606.087268253336	0
0	73311	2605684.522678925724	1
0	73315	2605798.356707633245	2
0	73316	2606090.503633481963	1
0	73342	2606841.125388223275	0
0	73425	2609327.385056560991	1
0	73429	2609499.333847531308	2
0	73433	2609632.494845523034	3
0	73434	2609742.091680004351	2
0	73440	2609856.553731324204	3
0	73441	2609872.583070957463	2
0	73459	2610176.444411545783	1
0	73495	2610759.382795960192	2
0	73515	2610811.647983356005	1
0	73535	2610960.073119684121	0
0	73995	2624782.259396407056	1
0	73996	2624865.582435920435	0
0	74025	2625245.326726606909	1
0	74056	2626228.143840411207	2
0	74057	2626410.34258779861	1
0	74085	2627022.401834419807	0
0	74367	2634921.190423908701	1
0	74368	2634981.66743274237	0
0	74716	2652763.948842942958	1
0	74749	2654016.996241525511	0
0	75192	2665232.735630703668	1
0	75193	2666045.22773417762	0
0	75217	2666190.879737450652	1
0	75220	2666263.976070973501	0
0	76084	2700404.156905540456	1
0	76105	2701322.092571223461	0
0	76327	2707503.081793783146	1
0	76336	2709336.212118348681	2
0	76337	2709770.958174847884	1
0	76345	2709918.089340913014	0
0	76369	2710207.061266989181	1
0	76412	2710758.942906098145	0
0	76674	2719158.923620924384	1
0	76678	2719430.588439511014	2
0	76679	2720839.037962635551	1
0	76687	2721572.066303637826	0
0	76740	2722385.278883215946	1
0	76772	2723437.249734386072	0
0	77730	2754118.886333576297	1
0	77731	2754279.632281325338	0
0	78049	2763494.146544771327	1
0	78068	2764071.05544342365	0
0	79011	2799942.347016516549	1
0	79012	2800492.870545765387	0
0	79182	2806034.02075571142	1
0	79186	2806916.216484943499	2
0	79187	2806952.704143308763	1
0	79201	2807091.10787303598	2
0	79219	2807413.576178957063	1
0	79240	2807749.656809854824	0
0	79253	2808124.838481503065	1
0	79262	2808241.005737610628	0
0	79524	2816244.912405382728	1
0	79525	2816302.37565509369	0
0	79583	2817223.832348741939	1
0	79587	2817685.968384095187	2
0	79588	2817767.688741611601	1
0	79591	2817789.064101526696	0
0	79597	2817803.856830330027	1
0	79648	2818624.983224950399	0
0	79659	2818654.566167069981	1
0	79699	2818796.635880246331	2
0	79731	2819657.801200486864	1
0	79737	2819902.014130590793	2
0	79767	2820250.538167750895	3
0	79853	2820802.525148463521	2
0	79928	2822421.734200836557	1
0	79954	2823069.979694195236	0
0	80396	2849691.086678387407	1
0	80402	2849819.861402984615	0
0	80835	2863680.644699826481	1
0	80839	2863790.127095359012	2
0	80840	2864522.292592376888	1
0	80868	2865326.312337610307	0
0	81868	2913933.738010723343	1
0	81869	2914011.034642426575	0
0	82032	2923339.337770302216	1
0	82036	2923383.070022713319	2
0	82037	2923636.116972522446	1
0	82040	2923772.823978559453	0
0	82317	2930927.274647422212	1
0	82318	2930944.587077325051	0
0	82552	2938747.510922252016	1
0	82553	2938820.345951179164	0
0	82718	2941692.901276005032	1
0	82738	2942009.268203953266	2
0	82754	2942907.052859231669	3
0	82782	2944188.339348029882	2
0	82790	2944815.765927060843	1
0	82808	2944945.639810463468	0
0	83286	2966489.618290804115	1
0	83287	2966592.531815662483	0
0	83799	2981456.238160758925	1
0	83800	2982733.70290065251	0
0	84312	3000002.96315647077	1
0	84313	3000372.267026524385	0
0	84478	3004663.736344007417	1
0	84482	3004921.550469849886	2
0	84483	3005084.722613507095	1
0	84486	3005309.684205780187	0
0	84666	3015239.968585798566	1
0	84685	3015854.855665573663	0
0	84708	3016442.658015247594	1
0	84719	3016627.654696713724	0
0	85197	3046688.421425850031	1
0	85215	3046979.916766781317	0
0	85333	3050290.60678913044	1
0	85339	3050758.936060487318	0
0	85345	3050954.716659611901	1
0	85361	3051292.340866298456	0
0	86535	3104097.878195609054	1
0	86536	3104467.521758574786	0
0	86649	3107462.550277057254	1
0	86650	3107584.158059978458	0
0	86753	3110408.552735325639	1
0	86759	3110830.254806600017	0
0	86842	3112296.798705033086	1
0	86868	3112740.172169185298	0
0	87333	3136991.932315501151	1
0	87334	3137601.346376882049	0
0	87789	3159928.939861603382	1
0	87790	3159998.903515859547	0
0	88359	3174351.225099130959	1
0	88363	3174425.003878533062	2
0	88364	3174579.955805847159	1
0	88367	3175437.520460667467	0
0	88872	3186357.145604810971	1
0	88873	3186799.992747266696	0
0	88986	3190083.765562153479	1
0	88987	3190170.582814979775	0
0	89214	3195337.125834087097	1
0	89217	3195381.791622516388	0
0	89221	3195382.419645242964	1
0	89245	3195720.260575614321	0
0	89278	3196220.681903644747	1
0	89306	3196344.804090198241	0
0	89722	3206395.295829893466	1
0	89728	3206571.087631900455	0
0	89848	3213179.926279244149	1
0	89892	3214111.907215136203	0
0	90582	3240490.176174820222	1
0	90586	3240821.117280136798	2
0	90590	3241061.023344342476	3
0	90591	3242451.335613435909	2
0	90594	3242459.030984693279	1
0	90597	3242511.349268801353	0
0	91110	3253853.600329628594	1
0	91125	3253918.506199234622	2
0	91152	3255127.795417504295	1
0	91160	3255163.483908856369	0
0	91578	3273182.04590513402	1
0	91582	3273368.340829448842	2
0	91586	3273646.481793829689	1
0	91594	3273693.319091507802	0
0	92406	3314092.316965492866	1
0	92410	3314332.890147837183	2
0	92411	3314568.161823688675	1
0	92464	3316525.341870160026	0
0	92634	3329247.465519982593	1
0	92635	3329381.058805324584	0
0	92862	3340359.806717420663	1
0	92863	3340750.133140434004	0
0	92969	3343344.140108372552	1
0	92972	3343412.89560916266	0
0	93405	3355187.067165155261	1
0	93411	3355489.597115891671	0
0	93541	3357140.306429263635	1
0	93547	3357628.591101199599	0
0	93717	3363396.772649162545	1
0	93718	3363721.777840734286	0
0	93724	3363866.640232024493	1
0	93748	3364800.770369739183	0
0	93759	3364903.598985494737	1
0	93823	3365627.10543023252	2
0	93836	3366326.802617329029	1
0	93862	3367385.749138079671	0
0	94220	3378677.853396993845	1
0	94231	3379312.525664916411	0
0	94260	3379912.882419046788	1
0	94261	3380043.087681468941	0
0	94629	3402918.334294069756	1
0	94630	3402980.714638716245	0
0	94800	3414949.882753047087	1
0	94801	3416013.520750606178	0
0	94812	3416314.04428445968	1
0	94829	3416635.280961415057	2
0	94832	3416723.796610276447	1
0	94843	3416929.330155695259	2
0	94887	3417605.949248233562	1
0	94910	3417924.80944547776	2
0	94944	3418154.427321005782	1
0	94952	3418448.837274030851	0
0	95380	3437416.153640358865	1
0	95396	3437769.666153753084	0
0	95620	3444579.473291806433	1
0	95629	3444689.401979271957	0
0	96054	3461997.181622356086	1
0	96055	3462671.854231841681	0
0	96396	3476098.421149938242	1
0	96439	3476455.044253081345	0
0	96624	3479104.537927543391	1
0	96625	3479547.717534507637	0
0	96673	3480371.205649061973	1
0	96710	3480892.778843599583	2
0	96743	3482319.948970529875	1
0	96746	3482346.612770607307	0
0	96985	3486789.398862333093	1
0	97024	3487560.947397999859	0
0	97308	3497603.629595276752	1
0	97309	3498022.128131572977	0
0	97566	3508162.701463941142	1
0	97572	3508474.499105702794	2
0	97586	3508713.547970603636	1
0	97654	3510734.292234869608	2
0	97655	3511630.035980470465	1
0	97681	3512300.477005667013	0
0	97878	3521802.643036207626	1
0	97879	3522982.301140475364	0
0	98079	3531548.122403797986	1
0	98083	3531722.754462345384	2
0	98087	3531956.291478142444	3
0	98088	3532212.801160355977	2
0	98171	3533751.560243051083	3
0	98175	3534160.771348746406	4
0	98176	3534232.76094356147	3
0	98187	3534899.493688837163	2
0	98190	3534900.737830109875	1
0	98213	3535041.354751124747	0
0	98562	3545073.823150247057	1
0	98563	3545240.215925524774	0
0	98812	3555553.074493987681	1
0	98821	3555886.388279346358	0
0	99474	3582354.435478660485	1
0	99475	3582495.278371450892	0
0	100124	3606967.95256177565	1
0	100134	3607207.882282165253	0
0	100500	3619362.455230135003	1
0	100504	3619488.251460191153	2
0	100505	3619696.73413089367	1
0	100556	3620671.929914106281	2
0	100562	3621018.380068176129	1
0	100570	3621282.064172334105	0
0	100882	3632190.779019977777	1
0	100895	3632706.349369039251	0
0	100901	3632837.11991808233	1
0	100922	3633204.955233546756	0
0	100986	3633652.023671002884	1
0	101009	3634460.198254382159	0
0	101360	3647635.112608732544	1
0	101381	3648099.637459257934	0
0	101528	3651640.050211643854	1
0	101557	3652605.234487009687	0
0	101858	3660712.292050787628	1
0	101872	3661422.29269107829	2
0	101873	3662337.371478781798	1
0	101891	3662721.804902215983	0
0	101900	3662749.054623795325	1
0	101909	3662952.721809751022	2
0	101910	3663257.597934786696	1
0	101918	3663328.703159724217	0
0	102468	3681928.048869618443	1
0	102469	3681988.512160542582	0
0	102532	3682658.061540306403	1
0	102541	3682909.456754664385	2
0	102550	3683202.979831326184	3
0	102559	3683538.681778910817	4
0	102565	3683816.802627156054	3
0	102591	3684692.13164718741	2
0	102599	3684833.105616054149	1
0	102607	3684846.080409301611	2
0	102658	3685159.943939887153	1
0	102687	3685269.936428746961	2
0	102740	3686132.768130508185	1
0	102766	3686873.387589264899	0
0	102951	3690681.087878176529	1
0	102952	3690921.148695254731	0
0	103065	3695709.625604816027	1
0	103066	3695750.906529274361	0
0	103179	3706700.339869692183	1
0	103180	3706875.733652451027	0
0	103692	3727792.417880368767	1
0	103693	3728292.523568636222	0
0	104034	3736374.424412829967	1
0	104038	3736967.33727925636	2
0	104039	3737514.795172683352	1
0	104062	3737894.887216563924	0
0	104071	3738062.474474490161	1
0	104072	3738098.028624473218	0
0	104262	3743191.799828948249	1
0	104263	3743829.769734888565	0
0	104716	3758555.073257651828	1
0	104719	3759544.410021423532	0
0	104782	3760382.193417278185	1
0	104794	3760615.028762511595	2
0	104824	3760910.176450040363	1
0	104887	3761777.286957978449	0
0	104893	3761887.105204569062	1
0	104897	3761980.848996517384	2
0	104920	3762985.5463300959	1
0	104939	3763189.611521712228	0
0	104945	3763196.784321513327	1
0	104998	3763524.502331954362	0
0	105288	3769418.874204116405	1
0	105289	3770089.159705256106	0
0	105831	3796468.214897403149	1
0	105835	3797261.632867714293	2
0	105839	3797640.025285294362	3
0	105840	3798341.37406695408	2
0	105915	3800038.871057886206	1
0	105933	3800456.744499513931	0
0	106423	3816002.09795261951	1
0	106427	3816034.589603160849	2
0	106428	3816123.050415205151	1
0	106431	3816132.447062462784	0
0	106584	3819747.697159053648	1
0	106600	3820060.68752101979	2
0	106629	3821995.940398421487	1
0	106659	3822738.681145880748	0
0	106998	3834447.120016092221	1
0	107002	3834930.860225401649	2
0	107006	3835204.201339287271	3
0	107007	3835492.146885843999	2
0	107033	3835758.744721991933	1
0	107086	3836973.705900911923	0
0	107419	3841951.165269135727	1
0	107453	3843166.892566808708	0
0	107461	3843304.686289068422	1
0	107462	3843931.942718267039	0
0	107932	3854212.801605698384	1
0	107941	3854266.471550490814	2
0	107945	3854462.866193907548	1
0	107948	3854578.778731991986	0
0	108758	3875893.604589028076	1
0	108766	3876556.317230851116	0
0	109162	3887736.656986091819	1
0	109165	3888744.481644733567	0
0	109278	3896922.644853674817	1
0	109282	3896954.799335057687	2
0	109283	3897551.918792495947	1
0	109291	3897701.58849821978	0
0	109791	3917561.232613837305	1
0	109792	3918828.274207327663	0
0	110088	3936710.474765645504	1
0	110092	3936738.417773260313	0
0	110812	3978043.106806098709	1
0	110813	3978140.913922796164	0
0	111560	4017447.905056887564	1
0	111561	4017655.841293558802	0
0	112495	4039069.203545125271	1
0	112496	4039508.111705403442	0
0	112584	4040875.062130490282	1
0	112585	4041699.762246669336	0
0	112750	4057474.855053258113	1
0	112754	4057653.670408990546	0
0	112899	4061850.512090381884	1
0	112903	4062456.328789853166	2
0	112904	4062891.193341283355	1
0	112932	4063220.661022167281	2
0	112946	4063818.414156440061	1
0	112949	4063837.506821865977	0
0	112972	4064174.343721807929	1
0	112973	4064223.016400939551	0
0	113355	4070187.624272408471	1
0	113356	4070427.282572097865	0
0	113699	4080179.742565486461	1
0	113725	4080778.128392545122	0
0	113833	4082650.217257093615	1
0	113834	4082970.95860805578	0
1	0	0	0
1	906	37613.144639990232	1
1	907	37636.02319394702	0
1	11474	389779.080629608306	1
1	11477	389800.476024225641	0
1	19741	696125.059613473294	1
1	19742	696167.15894272907	0
1	19874	701230.552988401244	1
1	19875	701234.630984260859	0
1	25068	864920.40696501139	1
1	25069	864935.115413417084	0
1	26246	908273.474819314367	1
1	26247	908274.841285192337	0
1	31498	1082904.820524284519	1
1	31503	1082937.913279924966	2
1	31506	1082978.959472409238	1
1	31509	1082986.583123031483	0
1	38462	1324862.000528711485	1
1	38465	1324914.375487367455	0
1	47742	1679953.478294134804	1
1	47743	1679978.312566917597	0
1	58786	2119327.351222768166	1
1	58787	2119330.368707344615	0
1	62667	2258456.970381306932	1
1	62668	2258471.052437193482	0
1	76424	2710939.770440431574	1
1	76425	2710999.020051941933	0
2	0	0	0
2	7754	284501.217092639123	1
2	7755	284506.035468688975	0
2	8123	293618.939732962595	1
2	8124	293657.48397761827	0
2	19553	692810.790547220288	1
2	19554	692831.58575460841	0
2	25078	865029.000343423696	1
2	25079	865092.507804970117	0
2	31531	1083145.521262130861	1
2	31532	1083155.838587006493	0
2	33233	1141563.408241691274	1
2	33234	1141582.828537381204	0
2	39012	1341160.714231493042	1
2	39016	1341244.640564129235	0
2	40907	1448185.313624136338	1
2	40908	1448225.004164408146	0
2	49364	1738214.706864698656	1
2	49365	1738215.093500627107	0
2	50452	1777438.745911557184	1
2	50453	1777439.576191207006	0
2	52364	1859443.886158288859	1
2	52365	1859446.822573648428	0
2	52706	1869828.660337664028	1
2	52707	1869832.140355983815	0
2	58796	2119386.072633972864	1
2	58797	2119414.564595281462	0
2	62164	2242844.661709868027	1
2	62165	2242858.851370614642	0
2	72079	2569746.895829479549	1
2	72080	2569797.102025887088	0
2	76434	2711083.392560586081	1
2	76440	2711203.904313568027	0
2	87925	3163331.764503625566	1
2	87926	3163346.765577354634	0
2	89293	3196266.519925523841	1
2	89294	3196269.133654733676	0
3	0	0	0
3	730	26995.460065948193	1
3	731	26995.669630573674	0
3	8133	293674.643188346279	1
3	8134	293686.859612651385	0
3	30486	1053885.332414174932	1
3	30487	1053910.760246548289	0
3	50464	1777444.499393805415	1
3	50465	1777477.388474124448	0
3	54050	1913785.589214942333	1
3	54054	1913803.735724583138	0
3	59034	2122347.00975497784	1
3	59035	2122347.277089096173	0
3	61344	2205700.023411999277	1
3	61345	2205701.882247822933	0
3	76449	2711233.327923804006	1
3	76450	2711235.291368773683	0
3	76716	2721853.51538912994	1
3	76717	2721879.388571713212	0
3	79306	2808769.560242081988	1
3	79307	2808794.562145543412	0
3	113866	4083373.688247313546	1
3	113867	4083380.449707131746	0
4	0	0	0
4	7774	284610.321705972131	1
4	7775	284626.920194560397	0
4	9226	329026.762199106394	1
4	9227	329038.640132243944	0
4	11964	400815.403564013175	1
4	11965	400823.501625325048	0
4	19771	696282.386132415371	1
4	19772	696303.460039079274	0
4	21652	750527.368983613275	1
4	21653	750533.020391827942	0
4	30496	1054016.172432768143	1
4	30497	1054018.724611716588	0
4	31544	1083178.118225749407	1
4	31545	1083179.521618053347	0
4	33052	1132067.437036676148	1
4	33053	1132165.806635788658	0
4	36821	1267393.380384047388	1
4	36822	1267407.79840223285	0
4	37081	1273426.537743983719	1
4	37082	1273431.961529463931	0
4	40927	1448287.858240453615	1
4	40928	1448299.551546122384	0
4	46551	1636602.846295774825	1
4	46552	1636604.471729359234	0
4	49384	1738275.280634967627	1
4	49385	1738281.45138400189	0
4	52384	1859482.539402748667	1
4	52385	1859516.327241423819	0
4	55837	1985961.037500340694	1
4	55838	1985978.592587318088	0
4	58276	2094000.251749114079	1
4	58277	2094029.519738961317	0
4	62699	2258677.239439064277	1
4	62700	2258695.067109416065	0
4	74783	2654177.49611739794	1
4	74784	2654251.869920732338	0
4	76459	2711269.406264092206	1
4	76460	2711280.352394810179	0
4	76726	2721953.443580704591	1
4	76727	2721970.557534153729	0
4	79692	2818789.374207819879	1
4	79693	2818791.072470326205	0
4	81393	2894721.36468241531	1
4	81394	2894733.566127770033	0
4	89320	3196379.826236948381	1
4	89321	3196454.527082205891	0
4	97348	3498472.125314612147	1
4	97349	3498499.616451581862	0
4	100084	3606328.313493522977	1
4	100085	3606367.815783517145	0
4	103447	3720714.440456531456	1
4	103448	3720739.690319281643	0
5	0	0	0
5	59	4029.372749789095	1
5	88	4915.643472105814	2
5	89	5452.899130877698	1
5	117	6677.434460424732	0
5	287	12729.314928571405	1
5	321	14492.914349359019	2
5	336	15769.359789992561	1
5	364	16148.761747830039	0
5	750	27308.554828959182	1
5	764	27641.689891655775	0
5	775	27739.889568617481	1
5	801	28629.721352451882	0
5	966	38049.737910664509	1
5	972	39580.610289724873	0
5	1655	69096.597900767471	1
5	1656	70119.644731459663	0
5	1833	73574.678302511781	1
5	1839	73670.590798157085	0
5	1885	74126.442755127579	1
5	1886	74277.052296016592	0
5	2401	89942.551629844374	1
5	2406	89974.299638091159	0
5	2567	92412.679234565392	1
5	2568	93556.948327777948	0
5	2800	99340.812584546701	1
5	2801	99434.968122167601	0
5	2852	100722.367251264955	1
5	2853	100975.727699388918	0
5	3479	131856.085941138294	1
5	3480	132064.586053049343	0
5	3593	133097.075765851015	1
5	3599	133462.100881765328	0
5	3951	156907.564103157934	1
5	3980	157422.223476906349	2
5	3989	158243.746702757523	1
5	4036	158392.864001815424	2
5	4045	158475.668586846196	3
5	4076	159610.732548442052	2
5	4097	159857.699537630705	3
5	4098	159867.687365729153	2
5	4121	159971.689878465759	1
5	4126	159987.346257443389	0
5	4213	160748.614522032713	1
5	4221	161465.443034948968	0
5	4973	185912.291341267237	1
5	4990	186091.999357118666	2
5	4991	186858.593084151351	1
5	4997	186938.224502059392	0
5	5201	192448.746667567073	1
5	5219	192681.626825746367	0
5	5250	192833.939664259398	1
5	5251	192904.812430801851	0
5	5310	193165.905738919186	1
5	5327	193279.262858791329	2
5	5328	193353.26363611507	1
5	5373	195568.867868843065	0
5	5474	197368.670095162742	1
5	5475	198307.418691298234	0
5	5759	211091.304560293546	1
5	5760	213099.227881426452	0
5	6253	231741.771636030124	1
5	6262	231907.520092187599	0
5	6281	232017.896708162943	1
5	6290	232077.397207096929	0
5	6794	248120.556592091798	1
5	6800	248418.596101464638	0
5	6857	249019.110011118471	1
5	6866	249172.200458848662	2
5	6874	249625.852397774198	1
5	6912	250069.229021497022	0
5	6954	250355.459589053581	1
5	6985	251573.195472965377	2
5	6986	252604.389162406494	1
5	7014	253276.266086944354	0
5	7122	255220.467613754133	1
5	7123	255230.61027712205	0
5	7236	256849.851811689881	1
5	7242	258036.3279529215	0
5	7345	259955.775900682962	1
5	7351	260247.912684809494	0
5	7538	274547.961226038318	1
5	7539	274578.776629273706	0
5	7573	274917.679852785246	1
5	7584	275390.731752727606	0
5	7781	284707.367683538853	1
5	7783	284764.004143360012	2
5	7784	285126.088392999237	1
5	7807	285355.399991817915	0
5	8158	293847.809007224607	1
5	8159	293852.748344084603	0
5	8559	312218.219251327649	1
5	8581	312736.146807280578	2
5	8589	313465.622462090485	1
5	8597	313524.933133321202	0
5	8666	313904.098788348302	1
5	8679	314573.250996085617	0
5	8775	315359.069574409837	1
5	8776	315586.789308362537	0
5	9236	329077.996412542754	1
5	9237	329144.948248018667	0
5	9982	353171.546011594101	1
5	9985	353418.973269185482	0
5	10214	358011.668072516986	1
5	10215	358163.346867241146	0
5	10490	367718.76989171516	1
5	10491	367970.12281234758	0
5	10611	372055.750268343597	1
5	10612	372493.337817834928	0
5	10782	374541.649466162679	1
5	10808	375326.595395787315	0
5	10835	375515.920311605586	1
5	10836	375536.03229047461	0
5	11072	378661.613031786024	1
5	11089	379036.259470751105	2
5	11090	379390.596985378313	1
5	11116	379763.700885302864	0
5	11630	394742.863993170166	1
5	11631	395611.471672472628	0
5	11741	397013.935734908039	1
5	11755	397162.07768778682	0
5	11784	397291.496898582052	1
5	11830	398389.115725765148	2
5	11864	399517.044278324543	3
5	11865	399566.408548031738	2
5	11876	399691.656794937967	1
5	11971	400833.958846684838	2
5	11974	400844.918056092486	1
5	11979	400878.655697495968	0
5	11988	400938.052549315602	1
5	11999	401076.95653665221	0
5	12371	409769.476474995084	1
5	12372	411157.801514102504	0
5	12884	432316.551041495472	1
5	12890	432644.562738600934	0
5	13454	463055.658471766876	1
5	13455	463107.752110294856	0
5	14024	486288.416899127088	1
5	14025	486351.198083160906	0
5	14432	508463.534587968256	1
5	14448	508960.17088679381	0
5	14936	528911.028039173301	1
5	14937	528958.866317123468	0
5	15112	532812.873218596064	1
5	15115	533177.515139230223	0
5	15159	533844.582726579823	1
5	15170	534181.680061796023	0
5	15226	534915.481567910129	1
5	15241	536222.658447006359	0
5	15290	536500.130711974757	1
5	15307	536711.023496778281	2
5	15308	537313.237005392723	1
5	15331	538428.337108579432	0
5	15518	542965.460377702075	1
5	15532	543220.398045075286	0
5	15538	543345.737674751546	1
5	15564	544257.043297037904	0
5	15734	560166.758394823395	1
5	15735	560305.283448776313	0
5	15910	563825.549268675811	1
5	15911	564198.83162535881	0
5	16019	565430.125342967531	1
5	16020	565458.996953912771	0
5	16418	582261.652207843294	1
5	16419	582495.279789601289	0
5	16482	583666.806358323589	1
5	16483	584832.508827523919	0
5	17005	599029.071547538257	1
5	17024	599358.837037965541	2
5	17025	599645.22262125795	1
5	17043	599766.474408684354	0
5	17164	601599.382080748666	1
5	17169	601701.83033349169	0
5	17268	603160.269032740998	1
5	17274	603815.284499507548	0
5	17694	626650.316045775555	1
5	17701	626756.305765314925	2
5	17702	626833.635749988869	1
5	17719	627054.405508618349	0
5	18755	670285.80040612253	1
5	18761	670360.092733853034	0
5	18938	675373.506066739965	1
5	18949	675829.717402802859	0
5	18973	675923.432773982953	1
5	18981	676016.285461276173	0
5	19154	678593.502876612931	1
5	19155	678984.522002300399	0
5	19394	691418.657037733333	1
5	19400	691474.594812143983	0
5	19429	691653.202370716297	1
5	19452	692074.186996041712	0
5	19578	692934.653306604571	1
5	19582	692967.330170954653	2
5	19583	693033.427838791568	1
5	19613	693657.951588290808	0
5	19667	694322.979294313643	1
5	19668	694499.533658593264	0
5	19781	696349.008984752577	1
5	19782	699010.688968698029	0
5	19922	701621.098384742142	1
5	19931	701745.036543240865	2
5	19937	702472.640334211785	1
5	19942	702660.507189460549	0
5	20363	709454.053281824481	1
5	20375	709513.368695044529	2
5	20388	709846.71381101299	1
5	20404	710054.618039741373	0
5	20460	710523.007092408091	1
5	20461	710542.124338434666	0
5	20579	717092.472862351538	1
5	20580	717115.640833350867	0
5	20812	724325.876941719712	1
5	20815	724483.297225333655	0
5	20983	728948.088316905598	1
5	21012	729731.610270291816	2
5	21036	730224.838258921803	3
5	21037	730937.848570648884	2
5	21065	732042.11873712516	1
5	21093	733070.60765034361	0
5	21662	750602.958947216733	1
5	21672	750842.937080075938	0
5	22061	757030.900158831427	1
5	22062	758236.452052214875	0
5	22182	761140.198441449636	1
5	22183	761209.503884763023	0
5	22232	761625.065430287974	1
5	22233	761838.865789621263	0
5	22289	762564.248997851326	1
5	22292	762638.94081916268	0
5	22574	766831.614024151864	1
5	22575	767493.241238307671	0
5	22710	770844.474600136448	1
5	22717	770987.428316716798	2
5	22718	771393.034999012132	1
5	22726	771744.313495787245	0
5	22859	773395.94594688545	1
5	22860	773950.807746565359	0
5	23493	799106.661058030128	1
5	23494	799133.991340038781	0
5	23609	800499.676700374472	1
5	23610	800725.988316598686	0
5	23955	808653.43884971603	1
5	23956	808844.875119222696	0
5	24008	809375.972436606339	1
5	24035	810115.63285496472	2
5	24056	810688.161196074559	1
5	24063	810757.833325897242	2
5	24084	811579.058428430977	1
5	24114	812237.517312391101	0
5	24284	822175.009348841332	1
5	24285	822816.913315029987	0
5	24405	826035.443028738718	1
5	24424	826763.070078498174	0
5	24430	826816.960670841051	1
5	24456	829913.423850983214	0
5	24977	862743.231439504181	1
5	25014	864203.653850362283	2
5	25023	864263.338881844412	1
5	25058	864569.557531405805	2
5	25097	865167.475631349473	1
5	25106	865217.191496550916	2
5	25109	865261.637859134002	1
5	25156	865579.193605116453	2
5	25164	866116.012782635526	1
5	25170	866193.166344606869	0
5	25424	875414.590890408041	1
5	25425	875429.989584383856	0
5	25659	889533.723640784489	1
5	25688	890102.038346811264	2
5	25709	890627.919301509841	1
5	25712	890629.49628672041	0
5	25716	890699.678799900138	1
5	25747	891026.972434205422	0
5	25909	895960.712004496745	1
5	25910	896004.06011065378	0
5	25929	896167.235847712111	1
5	25952	896569.026899288766	0
5	25986	896938.472554833956	1
5	25987	896969.267713164139	0
5	26306	908772.014387300175	1
5	26308	908856.702007029206	2
5	26309	909271.329980295473	1
5	26346	910044.10860014728	0
5	26410	911180.33981650091	1
5	26422	911335.353479549887	2
5	26423	911756.339263208938	1
5	26479	913198.727514664332	2
5	26480	914941.214308800227	1
5	26498	915267.085384162269	0
5	26678	922395.961055374015	1
5	26679	922572.970702810305	0
5	26988	932295.934031218912	1
5	26992	932398.765381928913	2
5	26993	932907.37801555307	1
5	27009	933124.535046694369	0
5	27072	933868.598686386739	1
5	27073	934171.649383198425	0
5	27305	942421.76519871584	1
5	27306	942439.654203552227	0
5	27399	944215.329026494832	1
5	27403	944274.977108117599	2
5	27420	944475.901672097999	3
5	27421	944595.836503741422	2
5	27454	945111.840569785535	1
5	27482	946606.40180450974	0
5	27875	960703.915472894604	1
5	27883	961174.82062850168	0
5	27937	961847.744348850392	1
5	27945	962390.842102965605	0
5	28242	974361.865810936275	1
5	28251	974447.694508894937	2
5	28260	975334.264976852787	1
5	28263	975352.732863170845	0
5	28333	975905.387044376101	1
5	28337	975954.290094955854	0
5	28737	988611.081704041775	1
5	28748	989484.459511318243	0
5	28777	989804.808239309374	1
5	28795	990731.380881521181	0
5	29528	1025327.178087837493	1
5	29529	1027315.546082003169	0
5	29704	1031673.50569493231	1
5	29705	1031686.00007138998	0
5	29875	1038002.439941878448	1
5	29878	1038518.899454726348	0
5	30269	1046504.094477571668	1
5	30270	1046572.992657859067	0
5	30506	1054177.687337179465	1
5	30507	1054375.681256306938	0
5	30903	1069728.231056814139	1
5	30924	1070174.334106727688	0
5	30938	1070259.072278089959	1
5	30954	1070688.650328448019	0
5	31062	1071692.326957126436	1
5	31073	1072808.397582967649	0
5	31243	1078074.214356713003	1
5	31244	1078080.92829570521	0
5	31361	1080721.013279714622	1
5	31369	1081376.150002357519	0
5	31564	1083306.72648451377	1
5	31581	1083389.728219200975	2
5	31598	1083470.275046116741	3
5	31616	1083660.681961546525	2
5	31647	1083953.487702728796	3
5	31665	1084253.922474225234	2
5	31702	1084417.097117330206	3
5	31726	1084582.448613384712	4
5	31737	1084692.548146967442	3
5	31750	1084793.936137491019	2
5	31796	1084887.397095222288	3
5	31815	1085473.617983672043	2
5	31861	1085785.253304349034	3
5	31867	1086977.359069333005	2
5	31890	1087417.48722666847	1
5	31913	1087757.401578064915	0
5	32554	1117995.170945084755	1
5	32555	1118238.294732899766	0
5	32606	1119153.273613962303	1
5	32607	1120760.076475333414	0
5	33062	1132349.115388216405	1
5	33063	1132647.854829647889	0
5	33260	1141686.377234000839	1
5	33262	1141746.140390537848	2
5	33263	1142488.019132797798	1
5	33266	1142510.689534578857	0
5	33404	1146669.678548363399	1
5	33405	1146670.984704937118	0
5	34259	1190680.715047446899	1
5	34260	1191650.300514779282	0
5	34492	1203623.371457125035	1
5	34495	1203732.808061253944	0
5	34725	1208970.156315377749	1
5	34728	1209210.900025547834	0
5	34762	1209517.239256360659	1
5	34778	1210138.922207524436	0
5	35000	1214717.140395576263	1
5	35001	1215848.677507095348	0
5	35404	1227305.62297427263	1
5	35405	1227353.697590464137	0
5	35510	1229841.182398906532	1
5	35519	1230656.887004267043	0
5	35627	1232729.841790488769	1
5	35628	1233264.627851937595	0
5	35907	1247042.285936568443	1
5	35908	1247260.095644078096	0
5	36042	1250757.704775927287	1
5	36047	1251120.261102962229	0
5	36144	1252329.314817220076	1
5	36148	1252491.957243044499	0
5	36199	1253180.938574817973	1
5	36226	1253783.903928883279	2
5	36239	1255058.159497899261	1
5	36277	1255523.140204263188	0
5	36286	1255561.857101485005	1
5	36312	1256386.95023970193	0
5	36430	1258345.244851248465	1
5	36431	1258970.438294156736	0
5	36608	1262786.217551411765	1
5	36609	1262787.793629946338	0
5	36836	1267628.10681644636	1
5	36858	1267934.691060115291	2
5	36861	1268214.570400986041	1
5	36879	1268369.823037388479	0
5	36928	1268933.334637342018	1
5	36934	1269142.365024914219	0
5	37088	1273445.016135621658	1
5	37090	1273447.576534808484	2
5	37098	1274720.525855660939	1
5	37115	1274930.97172519553	0
5	37292	1276795.939876973624	1
5	37305	1277770.088322982377	0
5	38192	1321682.662223012585	1
5	38193	1322743.001556389884	0
5	38529	1325217.624376589271	1
5	38535	1325576.790441484212	0
5	38643	1327735.479554907581	1
5	38654	1328055.033635206189	0
5	38767	1331290.673214730909	1
5	38791	1332766.544386929399	2
5	38792	1333992.673420540645	1
5	38815	1334711.760891379002	0
5	39332	1366712.690391486332	1
5	39333	1367499.641818115415	0
5	39503	1382232.181248956218	1
5	39539	1383963.955015157149	2
5	39540	1384139.997364726038	1
5	39548	1384237.142600960901	0
5	39959	1400647.889378640352	1
5	39960	1401055.670460469024	0
5	40631	1428456.020382679353	1
5	40634	1428487.327013900357	0
5	40942	1448378.513339273741	1
5	40943	1448590.470454307409	0
5	41555	1467088.418748131245	1
5	41563	1467714.528646313413	0
5	41674	1469875.456431106753	1
5	41677	1470817.631157336132	0
5	41726	1471366.205881272335	1
5	41727	1471633.479060186817	0
5	41867	1473520.621326448742	1
5	41868	1473639.143968553622	0
5	41877	1473673.203960565615	1
5	41893	1473952.272359323494	0
5	42752	1500045.61264644353	1
5	42753	1500210.267562462117	0
5	43094	1523947.181919343344	1
5	43095	1523975.424454438172	0
5	43468	1539083.446899138277	1
5	43470	1539085.049710499416	2
5	43473	1539230.932559622345	1
5	43496	1539671.829825736754	0
5	43545	1540186.707653897135	1
5	43551	1540775.93045274016	0
5	43956	1547686.585685590902	1
5	43978	1548084.450068651012	2
5	44014	1549735.902703666344	3
5	44015	1549866.506605786485	2
5	44018	1549917.477217382239	1
5	44084	1550352.070804430016	0
5	44088	1550356.605292060577	1
5	44111	1550568.068931780008	0
5	44182	1551470.311497661751	1
5	44185	1551854.420726172727	0
5	45062	1594100.709955642823	1
5	45066	1594119.027102694728	2
5	45067	1594431.659162785969	1
5	45070	1594438.068786672256	0
5	45269	1597671.304749831718	1
5	45270	1597768.153132732765	0
5	45892	1619579.572662866935	1
5	45893	1619683.560164641248	0
5	46001	1623673.75554193613	1
5	46002	1623886.888305774045	0
5	46184	1628979.45405729205	1
5	46208	1629766.029686966747	2
5	46209	1629792.833513817285	1
5	46232	1630127.670441393416	0
5	46412	1635219.788165333676	1
5	46413	1635232.544794305991	0
5	46566	1636765.729885535915	1
5	46567	1637031.896079075059	0
5	46977	1655047.533585013632	1
5	46999	1655369.502506654712	2
5	47000	1656475.269485389917	1
5	47008	1656639.280741542578	0
5	47324	1666059.031744532672	1
5	47344	1666294.23256601297	2
5	47349	1666911.829338161382	1
5	47385	1667124.867003232715	0
5	47401	1667257.938968751919	1
5	47412	1667320.408704394663	0
5	47555	1671230.666987126263	1
5	47569	1671506.596979470964	2
5	47570	1671743.764025785194	1
5	47573	1671836.277181340679	0
5	47797	1680594.573016445073	1
5	47817	1680714.916200156397	2
5	47825	1681044.662052848537	1
5	47832	1681069.489945071938	2
5	47848	1681192.628924747167	1
5	47885	1681523.693774793954	0
5	47939	1682032.401536804117	1
5	47940	1682089.306667328352	0
5	48053	1684103.605537448491	1
5	48054	1684453.621300285304	0
5	48167	1688577.337028765314	1
5	48175	1690212.832571146404	0
5	48343	1693593.604421376351	1
5	48344	1693928.721639192287	0
5	48395	1694780.296724604668	1
5	48396	1694959.22927309777	0
5	48630	1704010.362875279036	1
5	48631	1704200.66858930339	0
5	49022	1724308.970943196292	1
5	49028	1724470.08996041703	0
5	49389	1738303.944402599678	1
5	49393	1738342.415117033533	2
5	49394	1740062.292974363332	1
5	49407	1740283.28660070855	0
5	49886	1765232.902038541917	1
5	49887	1765754.824724778109	0
5	49919	1765973.621823346096	1
5	49935	1766227.007722532511	0
5	50057	1769120.570401771181	1
5	50096	1770287.835539394111	2
5	50113	1770494.603702359823	3
5	50114	1771033.089641342336	2
5	50117	1771079.190990281056	1
5	50120	1771121.433325898497	0
5	50476	1777558.551654293118	1
5	50483	1777834.617305191154	2
5	50504	1778287.342124121693	1
5	50513	1778356.335236861505	2
5	50529	1778638.467559007811	1
5	50552	1779356.699872279219	0
5	51193	1821487.904387071721	1
5	51194	1821897.989676216621	0
5	51644	1834765.434209602368	1
5	51650	1834966.243238006405	0
5	52164	1849393.91066829662	1
5	52175	1849591.00912366947	0
5	52204	1849848.405880798291	1
5	52210	1849993.956203655911	0
5	52394	1859593.466617249907	1
5	52419	1860281.280418370249	2
5	52422	1860891.140263554024	1
5	52466	1861747.080328984581	2
5	52472	1862915.353457500652	1
5	52478	1862999.004553094652	0
5	52736	1870264.848523199302	1
5	52741	1870986.347422297047	0
5	52846	1871604.05268529866	1
5	52871	1872059.401794811018	0
5	52888	1872123.376951950439	1
5	52926	1873047.986135909583	0
5	52930	1873067.665440152774	1
5	52934	1873234.207923188036	0
5	53594	1900419.151372524286	1
5	53611	1900667.991558334247	2
5	53612	1900711.431116285238	1
5	53623	1900822.162358694745	0
5	53763	1905981.453000917932	1
5	53782	1906321.2276422132	2
5	53783	1906403.847792937315	1
5	53801	1906882.914965280475	0
5	54078	1914132.842833241414	1
5	54163	1914968.592339057304	2
5	54165	1915038.763519549388	3
5	54182	1915478.716524116058	4
5	54183	1915556.899048670758	3
5	54213	1915921.971531991836	2
5	54274	1917048.242373433009	3
5	54290	1918231.019910846561	2
5	54313	1918354.696615257946	1
5	54342	1918415.665054160119	2
5	54350	1918732.694301637479	1
5	54404	1919756.656941240762	2
5	54410	1920400.433449524608	1
5	54416	1920449.468213341702	0
5	55064	1950235.062373665741	1
5	55072	1951012.251478581701	0
5	55301	1965057.590155807848	1
5	55326	1965586.204184909866	2
5	55329	1965737.288736375576	1
5	55357	1966001.427129857367	0
5	55366	1966059.075230311792	1
5	55372	1966095.972627294705	0
5	55525	1968028.163687039155	1
5	55526	1968148.571156508654	0
5	55691	1980048.311141647673	1
5	55692	1980780.916432212172	0
5	55842	1985997.749998647752	1
5	55849	1986094.922608481354	2
5	55863	1986380.449063277164	3
5	55869	1986885.483719088557	2
5	55892	1987131.245969663614	1
5	55917	1987574.37343900423	0
5	56028	1988395.448980712087	1
5	56029	1988574.659924920324	0
5	56318	2010559.302845110306	1
5	56319	2010566.570748808513	0
5	56774	2036002.891778380585	1
5	56775	2037363.93182817844	0
5	57002	2040931.877512606722	1
5	57003	2042280.422904748892	0
5	58283	2094049.14228947054	1
5	58285	2094092.072820388877	2
5	58286	2096093.737433554099	1
5	58289	2096114.388197263743	0
5	58826	2119740.235604864858	1
5	58827	2119910.142758307446	0
5	58876	2120233.723932224045	1
5	58893	2121126.155645424736	0
5	59081	2122749.297383621286	1
5	59083	2122751.747273092474	2
5	59084	2122959.826566816444	1
5	59087	2123017.093660189566	0
5	59339	2129263.791542856394	1
5	59340	2129534.206797725736	0
5	59567	2138003.452126746996	1
5	59568	2139243.131310612437	0
5	59971	2158961.23765997039	1
5	59972	2159002.966290570604	0
5	60251	2171281.330198868236	1
5	60252	2171471.062873380796	0
5	60434	2176934.81773977959	1
5	60458	2177687.578675255023	2
5	60459	2177848.2697252834	1
5	60503	2178260.027434083601	2
5	60509	2178413.556342056595	1
5	60565	2179730.830597792338	2
5	60566	2180833.812971559591	1
5	60594	2182323.103235513822	0
5	61215	2198289.513027027278	1
5	61216	2198644.958297508179	0
5	61366	2205842.341857596404	1
5	61387	2206134.16341347699	0
5	61847	2226276.166718304494	1
5	61848	2226382.179383399289	0
5	62194	2243118.717734537622	1
5	62195	2243991.480977906573	0
5	62285	2245325.155639034559	1
5	62302	2245577.397113395097	2
5	62303	2245616.858508508034	1
5	62307	2245647.828926829886	2
5	62323	2246023.464504084445	1
5	62370	2247369.992269055152	0
5	62469	2249026.474291430871	1
5	62470	2249095.968454827641	0
5	63051	2273376.733520378292	1
5	63055	2273474.269838722162	0
5	63343	2279633.491371503953	1
5	63374	2280275.914483126128	2
5	63380	2280609.765699939849	1
5	63427	2281217.383513844518	2
5	63431	2281365.651957117808	1
5	63467	2281861.580568448579	2
5	63471	2281892.343538094452	1
5	63501	2282351.942330100675	0
5	63612	2283882.737461764201	1
5	63615	2284100.603495792877	0
5	64029	2292025.147729528513	1
5	64030	2292144.642642794673	0
5	64183	2294198.839758982536	1
5	64194	2294595.940686860707	0
5	64253	2295523.481747544687	1
5	64280	2296078.624238690835	2
5	64299	2296412.531209169525	3
5	64305	2297374.454005586382	2
5	64331	2297686.003791777446	1
5	64353	2298039.405892884246	0
5	64754	2308692.304420765787	1
5	64755	2309476.279719052545	0
5	64925	2314321.767797264754	1
5	64931	2314918.618116284672	0
5	65091	2316436.936646270333	1
5	65097	2317290.346396551698	0
5	65267	2322360.506662732789	1
5	65268	2322491.956837551086	0
5	65837	2347915.756668030919	1
5	65838	2348037.370522844801	0
5	66179	2364735.532603183397	1
5	66187	2365420.543736877159	0
5	66692	2380902.8352274812	1
5	66693	2380973.247598268809	0
5	66984	2386977.357504904099	1
5	67006	2387497.591363598258	2
5	67007	2388045.240204092653	1
5	67010	2388082.889559162792	0
5	67155	2390839.925287145354	1
5	67156	2391015.063829587434	0
5	67210	2391721.683822474549	1
5	67211	2391747.086036900521	0
5	68181	2429905.824913235377	1
5	68202	2430270.005693823103	0
5	68211	2430381.839024943816	1
5	68222	2430489.743670477376	0
5	68409	2437684.402126261301	1
5	68465	2438366.398759723007	2
5	68467	2438376.732809754852	3
5	68475	2438678.388893614007	2
5	68529	2439201.87086691601	3
5	68545	2439423.763087736354	2
5	68549	2439499.4118594259	3
5	68553	2439611.283586910432	2
5	68603	2440276.088164146645	1
5	68643	2440758.294164728172	0
5	68920	2455485.793532625298	1
5	68921	2455982.297067465345	0
5	69029	2457531.012545967122	1
5	69030	2457807.918834340141	0
5	69730	2489938.032415209403	1
5	69739	2490125.653627586595	0
5	69750	2490202.251238833337	1
5	69758	2490432.772446003741	0
5	69993	2493695.655071997882	1
5	70006	2495267.96463854293	0
5	70357	2520564.421611694685	1
5	70369	2520844.098508933962	2
5	70370	2520922.932896007774	1
5	70398	2522032.625487105282	0
5	70573	2526380.360919189368	1
5	70576	2527394.879384465649	0
5	71075	2549008.09152940637	1
5	71080	2549063.928081920358	2
5	71089	2549116.064524888365	3
5	71090	2549296.994167597796	2
5	71134	2549850.075032295741	3
5	71140	2550131.454407680257	2
5	71185	2551851.387183288118	1
5	71219	2552154.083180301252	2
5	71253	2552682.990458674017	3
5	71254	2552833.794862723229	2
5	71310	2553956.566674180677	3
5	71316	2554225.666530103129	2
5	71341	2554989.981969603517	1
5	71354	2555171.048949204116	0
5	71720	2561196.047867079335	1
5	71743	2561765.877984274313	0
5	71747	2561766.109808497017	1
5	71806	2562719.950914591883	2
5	71830	2563319.815221310783	3
5	71841	2563446.093730016106	2
5	71864	2563572.952578474587	1
5	71887	2563653.722341596763	0
5	71909	2563764.390805498705	1
5	71927	2563904.497458715023	0
5	72114	2569884.795646289588	1
5	72129	2569945.899512755289	2
5	72130	2569968.507979431579	1
5	72160	2570336.720339574378	0
5	72511	2583519.563676817833	1
5	72540	2584643.130280105251	2
5	72541	2584929.403905196343	1
5	72566	2585315.514014456282	0
5	72751	2587065.66398064018	1
5	72775	2587321.4397432558	2
5	72779	2587482.985084285215	1
5	72799	2587721.560410716151	0
5	72813	2587786.121014389338	1
5	72849	2589285.764603493851	0
5	73247	2603402.085266270181	1
5	73248	2603706.04921837916	0
5	73491	2610751.880529318251	1
5	73504	2610785.216753992881	0
5	73551	2611225.325645595572	1
5	73569	2611553.946481829902	0
5	73618	2612020.124589155324	1
5	73620	2612041.711164536877	2
5	73621	2612173.982743061297	1
5	73651	2612524.273114837856	0
5	73700	2612938.159796644826	1
5	73732	2613952.893733693767	2
5	73733	2614343.218633785957	1
5	73739	2614480.36245889678	0
5	73817	2615872.164899368454	1
5	73823	2616149.059835401233	0
5	74392	2636113.783775008964	1
5	74393	2636583.963160815184	0
5	74793	2654365.393726641382	1
5	74812	2654529.218014882811	0
5	74818	2654671.225415903215	1
5	74829	2654891.744942376153	0
5	75128	2661338.55302475882	1
5	75129	2661470.95657825534	0
5	75247	2666668.080887529813	1
5	75248	2667366.852718646509	0
5	75299	2668542.526449030269	1
5	75300	2668765.475856792335	0
5	75579	2681056.048978215058	1
5	75585	2681372.486503859765	0
5	75636	2681889.741005707459	1
5	75637	2682011.27062512543	0
5	75812	2690804.623540845712	1
5	75813	2691350.142313100932	0
5	76159	2702176.474268007532	1
5	76160	2702332.594408805979	0
5	76466	2711322.710949540922	1
5	76468	2711389.436761345006	2
5	76497	2712092.37580434429	3
5	76503	2712949.614781825698	2
5	76509	2712976.280911934254	1
5	76551	2713518.681402696702	0
5	76593	2714060.88801580699	1
5	76606	2714522.486387648025	0
5	76736	2722042.628913735533	1
5	76741	2722985.267910270484	0
5	76805	2723636.539476681688	1
5	76809	2723671.293680063387	0
5	76825	2723842.659873750607	1
5	76844	2724015.355344976321	0
5	76890	2724331.049273715417	1
5	76896	2724544.991945261176	0
5	77237	2733503.80699339123	1
5	77238	2734064.429442071734	0
5	77351	2741942.45524210801	1
5	77380	2742859.462418946106	2
5	77381	2743560.30818021248	1
5	77384	2743583.120253636057	0
5	77579	2745748.731030789364	1
5	77580	2745819.127033606175	0
5	77814	2756234.202387426576	1
5	77815	2756278.790673540436	0
5	78548	2776446.893448791829	1
5	78561	2777761.225466982699	0
5	78585	2777933.837159014618	1
5	78606	2780655.15921057064	0
5	79323	2808953.089863006541	1
5	79325	2808974.64169827999	2
5	79326	2810106.78422198479	1
5	79349	2810464.829415983215	0
5	79579	2817050.435068683732	1
5	79598	2818064.046358913309	0
5	79718	2818958.801174584489	1
5	79725	2819090.489591338031	2
5	79738	2820035.034601479618	1
5	79751	2820178.380221808438	0
5	79980	2823800.020582466905	1
5	80002	2824300.889471149311	2
5	80003	2824800.0695006529	1
5	80006	2824830.372286856117	0
5	80459	2850351.656653207301	1
5	80462	2850391.672023811215	0
5	80466	2850428.679341248987	1
5	80532	2851197.199205480965	2
5	80539	2851378.938033498547	3
5	80545	2853327.415505148622	2
5	80571	2853693.599933761476	1
5	80579	2853998.066674794352	0
5	80714	2857675.111721714059	1
5	80722	2858434.46857119338	0
5	80942	2866943.679176822837	1
5	80943	2868888.42964072341	0
5	81170	2879598.712301114402	1
5	81171	2879719.083120049883	0
5	81621	2900168.858726581235	1
5	81627	2901083.392261726922	0
5	81918	2914484.669535757262	1
5	81919	2915028.733321078395	0
5	82104	2924848.288000760364	1
5	82111	2925014.757474695134	2
5	82119	2926534.485727255128	1
5	82172	2927373.814894057322	0
5	82243	2928091.620361217743	1
5	82249	2928402.843794655145	0
5	82476	2933923.019567434698	1
5	82482	2935276.573514113248	0
5	82605	2939644.469944467913	1
5	82613	2939813.51157730494	0
5	82642	2940005.061908493977	1
5	82653	2941020.142794305031	0
5	82890	2945797.234122243045	1
5	82898	2945947.743353661063	0
5	82952	2946361.260179179824	1
5	82961	2946555.994993437202	2
5	82962	2946634.324442295501	1
5	82980	2946867.626512816824	0
5	83165	2958629.089889778788	1
5	83166	2959514.244135834389	0
5	83519	2973713.85082079749	1
5	83523	2973835.427140446889	0
5	83539	2973995.942466861636	1
5	83572	2975238.055033928296	0
5	83906	2985244.495029189884	1
5	83907	2986203.885494979397	0
5	84419	3002955.321393411784	1
5	84420	3003629.116418793648	0
5	84533	3005873.127022583974	1
5	84541	3006698.147645170697	0
5	84590	3007205.493109336188	1
5	84591	3007254.71549923169	0
5	84786	3017289.180836265447	1
5	84790	3017357.380409692292	2
5	84791	3018667.57051411488	1
5	84819	3019697.092549112966	0
5	85274	3049041.583258456256	1
5	85275	3049201.152547505746	0
5	85787	3067552.984340610786	1
5	85788	3068508.031378413956	0
5	85901	3073453.011677021967	1
5	85902	3073563.355392340506	0
5	86243	3093238.050198889861	1
5	86249	3093718.229956744959	0
5	86421	3100012.252374859191	1
5	86443	3101250.224598393592	2
5	86444	3101682.85531141522	1
5	86467	3102356.917703448706	0
5	87965	3163614.34732573944	1
5	87966	3163769.057768704334	0
5	88423	3175930.870747295434	1
5	88457	3176240.831569802725	2
5	88458	3176260.098211679648	1
5	88492	3176573.376863692737	2
5	88503	3176674.933033292503	1
5	88509	3176693.598215536428	0
5	88530	3176893.729014330665	1
5	88541	3176980.293016000505	0
5	88741	3183126.406065383961	1
5	88752	3184161.091184547419	0
5	89036	3191410.468519867366	1
5	89037	3191671.710112695019	0
5	89335	3196572.450553936141	1
5	89352	3196691.689369871502	2
5	89353	3196769.049420220481	1
5	89407	3198553.798634570843	2
5	89408	3198621.077937606643	1
5	89416	3198767.500475199585	0
5	89492	3199455.868220104792	1
5	89493	3199862.788365155657	0
5	89948	3214823.251120185525	1
5	89949	3215377.923926002646	0
5	90342	3229507.91370778637	1
5	90376	3230719.419372981232	2
5	90377	3230900.776594881608	1
5	90380	3231053.366456908423	0
5	90654	3242950.482109882054	1
5	90693	3243186.86499852941	2
5	90695	3243286.826590276727	3
5	90698	3245085.283909339226	2
5	90724	3245452.388137141514	1
5	90749	3245737.842116084001	0
5	90796	3246122.806052035516	1
5	90829	3247304.843577973269	0
5	90855	3247432.174912089934	1
5	90861	3247546.796097263174	0
5	91232	3255751.22370991219	1
5	91236	3255903.467443909169	2
5	91237	3256301.292244157276	1
5	91260	3256788.160381990112	0
5	91948	3287614.303976633809	1
5	91949	3287752.997428566608	0
5	93033	3345015.891376517014	1
5	93039	3345359.760758270417	0
5	93197	3346569.288087881418	1
5	93198	3347335.857318616585	0
5	93254	3349153.231968890477	1
5	93255	3349416.465225297283	0
5	93653	3359890.417047356856	1
5	93654	3359938.583041620093	0
5	93776	3365273.077505364267	1
5	93777	3365334.044012824076	0
5	93933	3368104.458065461722	1
5	93939	3368125.038393542615	0
5	93995	3369420.121898785642	1
5	93996	3369942.079660634425	0
5	94508	3397609.185358553281	1
5	94509	3397966.025691516116	0
5	94986	3418748.178093842479	1
5	94998	3419027.122351361566	2
5	95001	3419547.313613947526	1
5	95039	3420113.554882071107	0
5	95053	3420167.112554595298	1
5	95069	3420459.949350107199	0
5	95427	3438727.717200833421	1
5	95433	3438828.413173073499	0
5	95467	3439071.748650038401	1
5	95471	3439128.946411357022	0
5	95653	3445076.485240989211	1
5	95656	3445223.502798864113	0
5	95700	3446500.70846223219	1
5	95701	3446584.84414817653	0
5	95826	3452377.425550797769	1
5	95848	3453413.017033842327	2
5	95874	3455550.086544603277	1
5	95879	3455706.57484112806	0
5	95898	3455787.64647043698	1
5	95934	3456259.084566464536	0
5	96455	3476554.990358785778	1
5	96461	3476958.633102840694	0
5	96530	3477402.693080097366	1
5	96531	3477458.585689635801	0
5	96795	3483609.978451109034	1
5	96799	3483621.239255636879	0
5	96830	3483937.669269629793	1
5	96846	3484078.208527336111	0
5	96907	3485490.131975633634	1
5	96908	3485740.476603056586	0
5	96976	3486700.351782341887	1
5	96997	3486887.53327654084	2
5	96998	3487237.452827979308	1
5	97029	3487683.97976268798	0
5	97078	3488197.491574005505	1
5	97102	3488685.853823805101	2
5	97103	3489278.080918497346	1
5	97121	3489701.563962213235	0
5	97358	3498620.138579867037	1
5	97359	3498939.434453723762	0
5	97727	3513251.265674564973	1
5	97729	3513338.890087666639	2
5	97735	3513550.61256338712	1
5	97738	3513552.612670723393	0
5	97814	3515264.642261377883	1
5	97815	3515475.495065479293	0
5	98245	3535258.139658842075	1
5	98254	3535452.696229864598	2
5	98257	3536040.941769086679	1
5	98306	3536377.960792284091	2
5	98307	3537362.10039823802	1
5	98335	3538173.20150973481	0
5	98389	3539426.397083438526	1
5	98390	3540655.513395662811	0
5	98612	3545936.436184759163	1
5	98613	3545945.992495775443	0
5	98887	3556622.811746591703	1
5	98905	3557477.476797053871	0
5	99410	3577056.543153926499	1
5	99411	3579892.120302711169	0
5	99581	3585190.525950829156	1
5	99582	3585750.589588822002	0
5	99980	3603244.670480232685	1
5	99981	3604370.885391383573	0
5	100265	3610828.222541234735	1
5	100266	3613034.253790649363	0
5	100436	3617295.390012831231	1
5	100437	3617805.211765721406	0
5	101633	3653942.325058466423	1
5	101641	3655056.523077743193	0
5	101947	3663469.225886717769	1
5	101974	3663738.943570234821	2
5	101988	3663826.798720850792	3
5	102005	3664153.872105982393	4
5	102006	3665330.588082633225	3
5	102029	3665919.137443171577	2
5	102050	3666259.469120876313	1
5	102053	3666260.472837898917	0
5	102802	3687176.862244515812	1
5	102808	3687748.093008368522	0
5	102812	3687879.385157432734	1
5	102816	3687979.271376457795	0
5	103457	3721015.529414053264	1
5	103477	3723572.724085407215	0
5	103526	3723826.172091821454	1
5	103543	3724067.499447215041	2
5	103549	3724406.090620286805	1
5	103554	3724701.498716351236	0
5	103618	3725325.751733782432	1
5	103619	3725559.938695545309	0
5	103742	3729935.318054689148	1
5	103748	3731273.724669015372	0
5	103799	3732178.42244980078	1
5	103800	3732186.834723057957	0
5	104188	3739572.450537961928	1
5	104199	3740068.488404658626	0
5	104312	3744374.659917975212	1
5	104340	3745517.850288375831	0
5	104344	3745555.336355668952	1
5	104358	3745755.702298222187	0
5	104567	3753316.042255713156	1
5	104593	3754421.391104881455	0
5	104784	3760440.042237979926	1
5	104785	3760597.830910492195	0
5	104813	3760815.992229955354	1
5	104850	3761349.14625942878	0
5	104866	3761555.892288742004	1
5	104919	3762589.89559250732	2
5	104923	3763055.613788296602	1
5	105002	3763524.553669410145	2
5	105004	3763534.283463088057	3
5	105010	3763584.953561999614	2
5	105016	3763654.446930707749	1
5	105032	3763739.902929949402	0
5	105046	3763790.433585067068	1
5	105059	3763844.816660801	0
5	105737	3790716.823527976328	1
5	105738	3791053.818741216838	0
5	105977	3800973.203141506244	1
5	105994	3801147.019570162147	2
5	105995	3801212.114982149304	1
5	105998	3801305.066682338584	0
5	106307	3812062.414224799915	1
5	106308	3812483.664011335566	0
5	106495	3816987.952482410852	1
5	106507	3817195.371088460879	2
5	106513	3817820.590446283982	1
5	106543	3819221.85586762193	0
5	106596	3820021.426589438534	1
5	106606	3821309.346007949724	0
5	106723	3823720.985258044033	1
5	106729	3823878.515724288887	0
5	106733	3823886.96059599274	1
5	106762	3824524.387669946078	0
5	106877	3828465.343581601749	1
5	106878	3828752.943171841093	0
5	107110	3837195.390262969485	1
5	107134	3837661.312992322945	2
5	107140	3838104.546565584716	1
5	107218	3838915.664579620127	2
5	107220	3838968.996859639946	3
5	107221	3838983.190871861436	2
5	107232	3839218.34140464713	1
5	107237	3839224.733859576744	0
5	107561	3845128.765937288755	1
5	107562	3845162.507998564842	0
5	108026	3855534.128341839471	1
5	108030	3855715.893574461579	0
5	108076	3856027.764818886473	1
5	108077	3856062.310007253575	0
5	108252	3859917.746439047682	1
5	108258	3860268.641068866285	0
5	108349	3860983.660497450024	1
5	108350	3861367.098123478026	0
5	108416	3862320.429429734886	1
5	108417	3862375.775311188072	0
5	108822	3878027.405935516987	1
5	108823	3878273.400248255727	0
5	108867	3878768.928350831701	1
5	108878	3879267.936258147503	0
5	108929	3879982.253204100666	1
5	108937	3880933.441422038305	0
5	108986	3881473.099039474782	1
5	108987	3881936.962861466686	0
5	109100	3885268.06387772406	1
5	109101	3885315.23915133518	0
5	109214	3889412.97007990304	1
5	109215	3890720.297892060212	0
5	109561	3908434.40883440274	1
5	109586	3908873.205761828144	0
5	109841	3920132.033440430321	1
5	109842	3921314.88397821481	0
5	110012	3930443.025357891974	1
5	110013	3932687.973722897583	0
5	110183	3937870.710192674074	1
5	110184	3938166.269017667863	0
5	111556	4017063.909884313946	1
5	111584	4018278.973576894257	0
5	111613	4018504.211709717994	1
5	111627	4018560.683362231157	2
5	111643	4019762.82452873948	1
5	111648	4019790.878193597858	0
5	111774	4021671.453124670839	1
5	111775	4021704.167960133554	0
5	112066	4029031.963662308823	1
5	112070	4029136.576220130466	0
5	112235	4032448.747412251394	1
5	112243	4032981.695524377622	0
5	112928	4063172.738323085355	1
5	112933	4063471.594094500171	0
5	113115	4065369.188304916212	1
5	113136	4065503.696855426303	2
5	113138	4065520.816157450246	3
5	113149	4066051.902559244303	2
5	113170	4066247.229879611943	1
5	113185	4066465.078538465612	0
6	0	0	0
6	2577	93762.427707073704	1
6	2578	93770.736642003691	0
6	5001	186960.966635982023	1
6	5002	186973.627975515544	0
6	8688	314612.44823313565	1
6	8689	314628.219721836071	0
6	11986	400907.898895975941	1
6	11989	400980.521184021546	0
6	17283	603866.374676547036	1
6	17284	604043.597777827914	0
6	25116	865296.763117356066	1
6	25117	865316.319840586251	0
6	26001	897005.188430020833	1
6	26005	897067.22789018751	0
6	27085	934426.052411907718	1
6	27088	934451.702896764703	0
6	30529	1054583.214013340986	1
6	30532	1054620.011518007606	0
6	33414	1146792.508689707577	1
6	33415	1146821.315432377307	0
6	37324	1277900.598948406019	1
6	37328	1277965.593902306117	0
6	39565	1384313.933099384817	1
6	39566	1384324.291194299055	0
6	40957	1448828.366596902671	1
6	40958	1448831.582993834667	0
6	41736	1471763.662850473667	1
6	41737	1471841.663827428453	0
6	44194	1551958.532082581889	1
6	44195	1551971.89397114779	0
6	45089	1594505.968175202753	1
6	45090	1594518.156246181939	0
6	45902	1619814.550335017224	1
6	45903	1619888.666741182748	0
6	50127	1771159.532603292298	1
6	50128	1771160.795989735893	0
6	52482	1863004.527530351067	1
6	52483	1863023.617433835074	0
6	52938	1873243.744824815666	1
6	52939	1873296.72285873866	0
6	55131	1951539.865044716513	1
6	55134	1951583.349637231159	0
6	55384	1966205.764417995035	1
6	55385	1966222.250603816035	0
6	59096	2123259.344723917318	1
6	59097	2123270.352367238896	0
6	59101	2123272.172608933934	1
6	59107	2123307.84753786625	0
6	66196	2365475.572953192208	1
6	66197	2365482.479736375476	0
6	67017	2388116.860587553774	1
6	67018	2388128.240868951455	0
6	68932	2456129.276567620984	1
6	68933	2456134.145240385833	0
6	69762	2490466.139865109238	1
6	69763	2490468.029052377269	0
6	72169	2570543.853927601439	1
6	72170	2570545.878237241613	0
6	73743	2614503.973001020296	1
6	73744	2614512.499919178438	0
6	76513	2712994.404903781608	1
6	76514	2713022.005709767017	0
6	80583	2854012.70465048756	1
6	80584	2854074.841814310089	0
6	81413	2895290.328254055248	1
6	81414	2895303.713315652801	0
6	86481	3102712.280618220116	1
[...]
11	89525	3200190.77369468115	3983.0734809495
11	89554	3201169.328719795812	2542.5750401906
11	89616	3202358.926971102369	2356.6076410346
11	89661	3203172.889041520855	1679.8655348352
11	89727	3206483.187625699735	3209.093740657
11	89815	3208817.090712865451	3096.1295129381
11	89832	3209524.801975978978	3130.0445467364
11	89908	3214430.395394873849	3779.3057569611
11	89976	3215946.159213227014	2768.0097975429
11	90033	3217488.186035375931	4519.9908701207
11	90060	3219215.649266274177	2938.1371697801
11	90147	3223207.083945279717	2365.2149563368
11	90179	3225311.954480107451	2650.1688082
11	90251	3227980.695796379559	3595.1696808584
11	90352	3229997.921161992886	2968.1278078113
11	90427	3231713.130494403668	3697.5428024613
11	90437	3231900.785920362215	3666.3219917897
11	90541	3234068.203225830359	4629.7618979171
11	90568	3234911.000756132167	2166.7592847575
11	90573	3235070.472687659361	3354.8168006578
11	90764	3245810.537936225609	4750.4687006944
11	90798	3246135.003423098246	5315.7072369931
11	90803	3246720.524309721423	6236.2592317384
11	90912	3248309.942717768446	1537.9095098567
11	90932	3248596.957790623648	5555.2834345842
11	90935	3248609.834687917999	9328.3850523614
11	90972	3249381.240007882174	2419.1828440264
11	91148	3254148.863935809654	3573.7435070092
11	91151	3254186.000389305602	2030.7874404589
11	91159	3255138.636834360661	2550.1134711384
11	91285	3257022.117757540496	3105.6129910064
11	91331	3257944.010631917415	4092.1919501062
11	91366	3258384.9862482693	5246.8000889301
11	91371	3258560.783525853917	2890.2865838675
11	91428	3261762.250374945838	3034.6782449905
11	91515	3265059.341263513673	3005.0789991412
11	91542	3265558.663625262842	1456.7329667411
11	91643	3274251.351450746416	2385.3387089599
11	91738	3275471.178928082218	2332.7735598759
11	91765	3276058.827544336414	2883.408512332
11	91770	3276452.409352438128	3087.7907024305
11	91839	3280670.499586999308	3887.5263884579
11	91884	3281497.270750252845	1706.1287354185
11	91983	3288221.852181808463	2672.3047105485
11	92028	3289112.748772998982	2288.3359877979
11	92055	3290356.056344043838	3038.7867621426
11	92112	3296018.97498065593	2275.9855996857
11	92246	3306302.215967251058	2934.9075259396
11	92278	3306963.721615162888	2307.983525123
11	92283	3307520.716038510666	4650.3135382575
11	92352	3309859.005314573047	2194.34201109
11	92397	3312629.808888938387	3938.6775676352
11	92463	3316454.657166228863	2812.2604596358
11	92563	3318169.1470504538	3840.7040292843
11	92568	3318371.613437439443	4279.8617374904
11	92625	3324849.60791303734	5328.5932987576
11	92687	3331320.018257431099	3584.6585781341
11	92739	3334268.513164328292	5023.7569556057
11	92803	3338486.529202429514	2974.7559406079
11	92853	3339675.657893636881	2137.0146394643
11	92917	3342433.298572356999	2156.1047410835
11	92982	3343739.425416826168	3380.0911073827
11	93118	3345885.851579363575	1830.249766358
11	93131	3346020.459509613349	3525.7941653588
11	93195	3346554.337650729488	3216.8218269938
11	93225	3347854.360587477613	2677.1161847501
11	93304	3349821.520245673406	1099.460451826
11	93309	3350013.276177918128	4166.6228603546
11	93391	3354188.295259712476	1813.4006780246
11	93510	3356829.118773959358	3877.4934153973
11	93539	3357135.960400133159	2653.9548239136
11	93546	3357334.545951079047	2152.7231251522
11	93631	3359494.338860320326	2360.314518502
11	93703	3360731.745588450839	4214.233962599
11	93708	3360996.177877080638	2123.4132651095
11	93830	3365950.040499836708	2553.9525902987
11	93835	3366115.678984008608	3596.09225887
11	93938	3368111.822921710908	4248.0400732133
11	93971	3368525.326039700662	2898.827908798
11	94023	3370826.752627349021	5928.4394649368
11	94102	3372665.490747303425	983.57785303793
11	94107	3373664.390373989914	5148.5680789144
11	94164	3376494.451086600613	2436.8821210726
11	94230	3379030.222891426361	1277.3312488821
11	94352	3381381.930290101377	3572.1957142557
11	94365	3381893.979240574458	1987.4861351718
11	94392	3383296.97865551892	4622.4564863147
11	94449	3393098.722453645851	2705.3201082698
11	94536	3398294.317761221269	2777.8213668418
11	94570	3399658.090622758082	2937.5016791448
11	94625	3402808.848632887206	3426.226973755
11	94729	3405496.102008705698	5609.2302309443
11	94734	3405907.911996184787	2996.7596875846
11	94791	3409796.580185459528	2121.1999594356
11	94894	3417652.615844839231	4404.4115123638
11	94948	3418251.279748080886	3314.6919463584
11	95033	3419944.8276292084	3633.9486898119
11	95096	3420731.838722200486	3806.7437067437
11	95123	3421317.214530705018	4682.1906134716
11	95133	3421613.119256701011	3693.7679306578
11	95190	3425220.104219724043	2599.0094666036
11	95247	3431332.324292565847	3360.309961674
11	95363	3436389.564867660681	3897.6607106757
11	95368	3436994.204121471594	2566.3567476143
11	95500	3439283.911826319183	3528.3958396678
11	95522	3439738.211942320671	2357.1661864357
11	95584	3441957.79321353391	2788.1071338741
11	95589	3443185.210169164097	5773.5267247777
11	95728	3447015.984685309572	2820.0172369828
11	95755	3447788.975661688402	3210.0993971243
11	95760	3448418.670995595029	4523.2404195834
11	95928	3456028.21904514915	4802.7421172942
11	95933	3456092.180716115226	4563.3616280869
11	95983	3456786.846859207069	4619.7057910343
11	96030	3458331.145953385222	4252.0098570503
11	96045	3458612.964347879253	1410.9037293233
11	96132	3464159.876583962525	2218.8035744652
11	96159	3465695.387882428611	3708.9101473003
11	96221	3470787.86015732158	1677.2211592088
11	96278	3471757.783279925917	2034.049456717
11	96330	3473599.633440310872	2260.8276418455
11	96523	3477363.037584563402	2832.38902495
11	96568	3477764.781271154251	2955.8987326457
11	96583	3477895.915476924093	1990.6549158377
11	96617	3478813.614651945044	2720.3529342609
11	96620	3478829.033035272542	3734.1269530619
11	96715	3481170.308221575292	2066.5219289923
11	96742	3482056.167821690269	3708.1302121993
11	96863	3484297.043563709033	3934.927221462
11	96878	3484504.033503546228	3627.1955943855
11	96959	3486331.422250433182	5961.7687702235
11	97028	3487643.579035670701	3585.7971362109
11	97069	3487928.171843456926	3100.5687491956
11	97145	3489905.319822364284	4017.0579755148
11	97175	3490199.575212046675	3882.145049538
11	97190	3490572.925148129103	3788.0275032541
11	97242	3492888.517398921585	2345.9187439036
11	97299	3496519.252950648642	3269.8645025975
11	97408	3499802.558366275946	2201.4599186028
11	97413	3501492.290835108049	4016.9353773105
11	97485	3504574.75470588132	2107.3627024669
11	97527	3506584.560673104246	2588.8832381351
11	97615	3509479.219941588039	2610.0111593571
11	97650	3510170.778770691781	2143.254595418
11	97780	3514032.57640759464	3299.3615855691
11	97790	3514284.140022589477	6125.6163344073
11	97864	3516312.897209805658	2857.213392891
11	97869	3516490.778181585814	8019.313766004
11	97931	3524187.024465897389	3778.583197656
11	98013	3528620.118687541682	6820.9509917977
11	98072	3531422.765745143762	6289.4536287795
11	98137	3532705.158254672612	2543.4052703288
11	98167	3533400.4806336095	2422.3380280598
11	98299	3536344.503650520441	4623.5689148028
11	98334	3537670.474126260483	6125.0067942376
11	98367	3538975.518698851575	5224.352987966
11	98417	3541204.450603508976	7051.1216396784
11	98461	3541974.117651136152	10023.024515166
11	98503	3543133.191406633455	4452.064172698
11	98558	3544656.063184517887	2216.1836970981
11	98662	3546930.208127194878	1861.8593681546
11	98672	3547178.096427358428	2770.2143074774
11	98729	3550166.897190379516	3746.5437477613
11	98781	3553063.359719623909	3017.5638156938
11	98897	3556924.366842340312	2793.4245437825
11	98952	3557805.576300934921	2603.698706824
11	98959	3558022.401850863157	2474.2609035983
11	99009	3559596.512523557009	2418.5188334886
11	99096	3562952.444383942596	2052.4460867239
11	99123	3564280.775518567287	1952.0145012797
11	99202	3567241.713517435467	2777.2734997018
11	99237	3568494.159761902115	2063.3268796979
11	99294	3574760.16815688092	963.23017766756
11	99363	3576276.218598275458	1223.4887288948
11	99462	3580694.703001358735	5553.0926514341
11	99465	3580715.82727292718	4542.6315351119
11	99559	3584561.980277528449	2367.7882483443
11	99621	3586553.204874584821	4207.7050371882
11	99636	3587117.026756369424	3283.184382802
11	99698	3592067.121971864661	2112.1661298691
11	99785	3594308.428326463367	2523.5842661491
11	99837	3595374.867396778977	3171.8745846112
11	99869	3596195.056689797622	2037.955840892
11	99921	3598129.44495043382	2103.6397336211
11	100015	3604961.524915254624	2226.2445693796
11	100042	3605481.800083918504	3086.9635992029
11	100131	3607051.438208476101	1968.3777626051
11	100188	3607861.1405096871	2272.1109695165
11	100236	3609058.234890681103	2092.8080635061
11	100315	3613388.889428532309	6494.5642056165
11	100327	3614193.452332401234	4443.1014814181
11	100419	3617078.627348090455	3785.7296007311
11	100486	3618753.327142203903	3076.9085092467
11	100491	3618920.181850085219	2278.778214861
11	100561	3620896.594455588627	1554.8254823717
11	100660	3622515.698183805756	3158.4887815131
11	100692	3624352.978078337495	4874.1044843185
11	100719	3625000.757994618422	4329.6529151851
11	100828	3629347.149025441757	2378.6381983381
11	100840	3631143.73934876966	4990.7099560491
11	100972	3633502.080951290639	3775.6356132138
11	100982	3633630.743024088202	1522.6556679044
11	101041	3634866.668371781114	2682.0026188188
11	101113	3636498.571606100016	2853.5595858107
11	101118	3636638.006778666573	3809.9991188365
11	101182	3643744.328950536922	1459.0023938886
11	101262	3645326.260011724059	2392.1972241998
11	101289	3645916.376368896143	1557.9195767147
11	101432	3648763.792708507551	1632.8932034722
11	101437	3648772.764646001002	2168.6657285281
11	101517	3650856.125005985297	3359.575062405
11	101548	3652156.853512504177	4528.8158452068
11	101588	3653135.562612895998	2597.232787439
11	101690	3655428.71337723262	3800.5966561959
11	101695	3655626.150967540585	4218.9454856748
11	101752	3657199.174297931215	2725.3205393654
11	101832	3660279.342631519657	4178.6786228003
11	101868	3660874.777692599412	2759.6221410275
11	102075	3666374.717523411865	5969.462910811
11	102134	3667248.07576314704	4300.2754619356
11	102141	3667508.383059172817	6796.7071732772
11	102151	3667708.900028678387	4960.8097317635
11	102156	3667825.426354321327	6403.1570107309
11	102248	3669862.606465577278	2294.2537202846
11	102263	3670293.513839115889	3756.7503987105
11	102345	3671954.290254288944	1898.5615047353
11	102372	3674236.779872958498	3257.5826263462
11	102434	3677701.518190729326	2035.1694155241
11	102555	3683289.101020222136	1470.9372196427
11	102564	3683799.973958141036	6941.5396321783
11	102655	3685153.921276332453	3231.9986126482
11	102707	3685467.158269941997	2813.3318367192
11	102757	3686188.560722232296	3282.0193443232
11	102884	3688485.325445117873	3645.3076399738
11	102887	3688529.121518637959	4994.5866469418
11	102905	3688953.94724738014	5754.8281902711
11	102942	3690482.805245623782	5217.6482916572
11	103029	3693186.81903617762	2515.1144335372
11	103061	3695569.903751952266	5022.9551570187
11	103120	3697190.701243443703	3019.2947855948
11	103170	3701695.187844265132	5985.9634367373
11	103279	3710400.539531503333	3703.1256169596
11	103291	3710686.486280967966	5293.941293557
11	103341	3712360.084162019456	1857.1535606976
11	103398	3716145.420699622955	1286.7304291478
11	103541	3724064.137890692126	5050.1375326607
11	103666	3726088.655846553967	2986.8702004864
11	103673	3726350.019038665932	6819.0064952535
11	103678	3726945.827613736077	4042.6444048187
11	103683	3727434.827856498878	3174.4265478234
11	103820	3732465.664620236863	4938.5157523867
11	103839	3732893.27497831403	5104.7849197633
11	103936	3734283.931043372954	3306.3298439602
11	103955	3734470.322916338831	2571.2166769887
11	103980	3734886.271037444367	2137.8890991101
11	104030	3736355.638394508915	2301.4221792266
11	104134	3738941.245766512296	3212.8546135375
11	104198	3739729.514478894147	3356.8065161079
11	104248	3740875.922491260028	2813.8564055542
11	104253	3741581.581774533486	4620.3942090708
11	104414	3747270.790522595617	2341.1424659147
11	104419	3747451.140740024235	4265.2056350856
11	104424	3747890.630415176226	5623.1952952502
11	104592	3754271.102529813651	4253.4760119142
11	104613	3754813.880682487417	3940.3868108069
11	104652	3755303.39928654263	3372.4238623399
11	104657	3755338.429024004066	2938.9052449303
11	104718	3758575.874116088049	3754.5630087169
11	104854	3761366.704278524876	2823.342886826
11	104985	3763417.469420676576	3703.0320040297
11	105130	3764155.935515142741	3784.782194794
11	105150	3764343.767019190017	7730.0915567379
11	105155	3764557.953375172232	3947.6147648141
11	105160	3764640.82763977745	4420.4478510465
11	105165	3765130.5651978634	3243.7067836941
11	105170	3765207.363175888026	3237.4529969467
11	105274	3767704.283761483944	2012.9773880365
11	105279	3768281.717331221871	5085.6934693683
11	105376	3772399.502109453867	3181.2110236256
11	105433	3773301.66063838059	3884.3607345073
11	105502	3774837.304487574302	3110.6585576568
11	105507	3774926.199667482679	2491.2629535767
11	105594	3784994.503811494591	4341.2278325841
11	105621	3786161.541388353156	2874.0250409026
11	105690	3790003.077567543145	3771.2858638526
11	105785	3791799.540001739306	3092.1744376838
11	105792	3792074.936958404653	2184.9045416623
11	105914	3799897.503817000008	4628.3616563704
11	105922	3800152.922702713248	3738.5176333077
11	106050	3802167.764583373061	4918.1690927253
11	106097	3802775.65798957269	6318.3252821835
11	106129	3803199.440546498941	5569.2180235129
11	106141	3803743.403930004646	1903.7639023546
11	106196	3805214.162002580252	1973.1077419233
11	106248	3807908.01605319906	2970.7786309461
11	106355	3813825.049958095504	4010.4611325514
11	106362	3813869.487068056913	2482.4877132504
11	106438	3816358.456082881096	2086.5368088209
11	106542	3818443.266937323703	2414.8153508283
11	106605	3820141.882786025152	4978.1898630966
11	106636	3822377.097775731511	6375.1253511151
11	106758	3824243.414826498057	4187.0084385767
11	106769	3824545.260042483376	7280.3824562652
11	106808	3825118.520395212479	5375.2948354162
11	106818	3825588.760356572112	6348.7805308737
11	106905	3829830.089176497828	2813.6426139905
11	106962	3832458.698587168463	5362.2539102498
11	106989	3832904.383729574559	1846.3253781405
11	107085	3836809.844717292636	2970.3857270212
11	107179	3838500.324356007474	4054.4960447846
11	107262	3839363.59470888969	4441.2581597274
11	107306	3839836.145850746366	1508.436587839
11	107314	3839990.954242580326	4787.0961468899
11	107363	3840572.839568300395	2550.4306793406
11	107429	3842372.976509089443	3030.0673046166
11	107457	3843166.946421562992	2670.2909419491
11	107531	3844842.630050387445	2894.4902797447
11	107609	3845771.99051904214	4267.4727055136
11	107628	3846247.720755023027	2943.3167182531
11	107754	3848140.053249825185	1982.4573846846
11	107757	3848199.543621263995	2549.2938565816
11	107787	3849526.468119494454	1894.7373379842
11	107844	3851113.200041048708	1432.0098276232
11	107906	3853463.994261145956	1982.2886208041
11	108037	3855737.60279978555	2787.8014201693
11	108104	3856258.957431130204	2047.4283927367
11	108136	3856639.804787223113	2747.8037791179
11	108164	3857397.142429531509	2021.2522332801
11	108193	3858304.103966753205	4040.3021819104
11	108379	3861881.600107535396	2834.8709078544
11	108387	3861989.933544948045	5083.7327449903
11	108409	3862278.455715915	2237.3250423019
11	108471	3863417.366103878942	2040.0023291516
11	108501	3863822.590545471071	4618.9704057908
11	108528	3864520.08778231289	1186.2845901991
11	108674	3874986.359393320531	3657.7874592112
11	108721	3875327.847557265679	2455.2453255047
11	108760	3875923.705036765768	1909.1387356123
11	108765	3876205.086995716658	4198.214329549
11	108877	3879222.151530923659	3421.8144991018
11	108915	3879759.138872890805	3874.032638383
11	108969	3881253.474185099524	4221.7250486008
11	109036	3883010.73742718234	4466.2801710095
11	109048	3884124.156794651977	3933.4416057225
11	109128	3885824.171071474618	1838.6014857469
11	109164	3887739.072129381653	3397.0685207293
11	109264	3891554.855167269417	4482.3285619153
11	109269	3891777.362326427823	4040.8846141821
11	109406	3898965.150721717486	3099.3599578266
11	109413	3899064.476753079501	2156.3871804046
11	109440	3899890.728186916478	2936.2351187906
11	109497	3903243.407883947871	2442.2646060888
11	109635	3909346.19718527763	3851.5442101163
11	109715	3910220.753560813993	2087.0022543239
11	109720	3910340.285134857712	1646.7313189475
11	109730	3911460.664950861713	3518.1023188935
11	109782	3916210.510887131851	4995.2528746684
11	109869	3922672.649047809794	5362.2898119377
11	109901	3923597.848983716321	6046.3140104016
11	109953	3927563.146781856907	4565.5987622539
11	110060	3933178.637164830842	4370.9996991671
11	110067	3933607.462679156604	4112.5601770123
11	110171	3937674.415877847761	2500.2572064627
11	110218	3938779.791121426572	2073.8237825318
11	110268	3939551.30106663488	3041.3138238073
11	110295	3941375.272254843175	2980.5540731516
11	110352	3948977.775543855844	2065.9523479296
11	110416	3954730.584861949673	3584.8007004891
11	110483	3957256.865000856671	3670.3658135943
11	110523	3959422.566552423543	3722.5791998544
11	110610	3970062.887436219411	2694.9353169267
11	110637	3971222.778262739689	2619.6081321763
11	110724	3974758.702992694858	3285.1441129707
11	110758	3976142.630339221993	2801.7269852906
11	110845	3978777.683358923118	3581.8660622537
11	110904	3979520.411482497531	1642.8435392052
11	110929	3979790.521072775584	1747.7521464661
11	110979	3981950.07980279996	2558.6842862462
11	111048	3984777.050568378543	1853.221077341
11	111093	3986726.244954127552	2207.294834201
11	111150	3996264.745069630067	2639.0699150666
11	111239	4000876.889458534341	2295.6970730729
11	111264	4002018.297773138317	2909.6207102634
11	111326	4008469.312462688283	5527.1936488807
11	111408	4010987.536610765	2066.223065325
11	111435	4013150.542172499851	5143.2155937999
11	111522	4015216.942227299594	1996.9893295373
11	111637	4018790.585231300477	5123.3316393871
11	111700	4020589.198851023724	4591.8604615945
11	111705	4020642.778386639191	4229.4446742684
11	111819	4022084.805671626024	4637.8371216653
11	111829	4022371.787153078648	2624.4756285662
11	111834	4023016.701203213504	2930.5381065169
11	111923	4026899.111495569939	2921.3194006372
11	111962	4027737.491352562852	1810.7618738437
11	112096	4029218.189265492947	2439.353066747
11	112161	4029747.738351095118	2501.0827313588
11	112171	4029879.871224763342	1313.4136032764
11	112188	4031193.929125994388	2959.3256388317
11	112315	4033842.890816309826	2693.704463849
11	112349	4034864.300564443756	2229.0909008469
11	112354	4034952.606569231917	4473.6333067592
11	112411	4036826.721712201159	2875.963923805
11	112528	4039821.968712339919	3620.4200647219
11	112553	4039989.80767282538	2152.7366367506
11	112580	4040600.070106193285	1886.7216650616
11	112644	4043405.193365586698	4341.2838304706
11	112689	4044474.162103313661	3606.9593251067
11	112758	4057657.195330918221	2823.2941119232
11	112860	4060281.812049486375	3165.52391204
11	112865	4060546.130279134524	3075.6320278709
11	112968	4064104.393737685301	5276.6140015754
11	113143	4065653.342006589849	4141.9329658847
11	113148	4065946.548505229573	2732.1850276927
11	113179	4066364.622186048441	4516.4677625551
11	113249	4067023.279398414511	2028.6141048338
11	113259	4067119.152015728452	2960.1214075773
11	113271	4067862.54650636024	5407.5299366925
11	113328	4069548.489245719545	2741.5118995725
11	113492	4071722.34938339917	1623.0690330106
11	113499	4071884.633534578946	3396.2901871965
11	113524	4072397.813188252547	2214.6390946903
11	113574	4073522.711840205523	1921.6275353838
11	113601	4074907.352966409891	3212.6977162342
11	113663	4079434.378103170657	2306.6883603372
11	113724	4080739.032710970555	1453.4309974453
11	113829	4082523.97763639073	2361.1437398357
11	113873	4083383.158764292138	3266.3284111589
11	113931	4084752.328013950803	2630.5535869587
11	113943	4086151.405398332593	3502.1219629512
11	114000	4088465.495560939079	1613.9789423696

