version 2
run General-0-20180514-12:55:10-53192
attr configname General
attr datetime 20180514-12:55:10
attr experiment General
attr inifile omnetpp.ini
attr iterationvars ""
attr iterationvarsf ""
attr measurement ""
attr network Network
attr processid 53192
attr repetition 0
attr replication #0
attr resultdir results
attr runnumber 0
attr seedset 0
param **.source.numJobs 10000
param **.source.interArrivalTime exponential(900.0s)
param **.queue10.capacity 1
param **.queue9.capacity 1
param **.queue8.capacity 1
param **.queue7.capacity 1
param **.queue6.capacity 1
param **.queue5.capacity 1
param **.queue4.capacity 1
param **.queue3.capacity 1
param **.queue2.capacity 1
param **.queue1.capacity 1
param **.server10.serviceTime exponential(60.0s)
param **.server9.serviceTime exponential(60.0s)
param **.server8.serviceTime exponential(60.0s)
param **.server7.serviceTime exponential(60.0s)
param **.server6.serviceTime exponential(60.0s)
param **.server5.serviceTime exponential(600.0s)
param **.server4.serviceTime exponential(60.0s)
param **.server3.serviceTime exponential(60.0s)
param **.server2.serviceTime exponential(60.0s)
param **.server1.serviceTime exponential(60.0s)
param **.server.serviceTime exponential(600.0s)
param **.delay10.delay exponential(60.0s)
param **.delay9.delay exponential(60.0s)
param **.delay8.delay exponential(60.0s)
param **.delay7.delay exponential(60.0s)
param **.delay6.delay exponential(60.0s)
param **.delay5.delay exponential(60.0s)
param **.delay4.delay exponential(60.0s)
param **.delay3.delay exponential(60.0s)
param **.delay2.delay exponential(60.0s)
param **.delay1.delay exponential(60.0s)
param **.delay.delay exponential(60.0s)

vector 0 Network.queue queueLength:vector ETV
attr interpolationmode sample-hold
attr title "queue length, vector"
vector 1 Network.queue1 queueLength:vector ETV
attr interpolationmode sample-hold
attr title "queue length, vector"
vector 2 Network.queue2 queueLength:vector ETV
attr interpolationmode sample-hold
attr title "queue length, vector"
vector 3 Network.queue3 queueLength:vector ETV
attr interpolationmode sample-hold
attr title "queue length, vector"
vector 4 Network.queue4 queueLength:vector ETV
attr interpolationmode sample-hold
attr title "queue length, vector"
vector 5 Network.queue5 queueLength:vector ETV
attr interpolationmode sample-hold
attr title "queue length, vector"
vector 6 Network.queue6 queueLength:vector ETV
attr interpolationmode sample-hold
attr title "queue length, vector"
vector 7 Network.queue7 queueLength:vector ETV
attr interpolationmode sample-hold
attr title "queue length, vector"
vector 8 Network.queue8 queueLength:vector ETV
attr interpolationmode sample-hold
attr title "queue length, vector"
vector 9 Network.queue9 queueLength:vector ETV
attr interpolationmode sample-hold
attr title "queue length, vector"
vector 10 Network.queue10 queueLength:vector ETV
attr interpolationmode sample-hold
attr title "queue length, vector"
vector 11 Network.sink lifeTime:vector ETV
attr interpolationmode none
attr title "lifetime of arrived jobs, vector"
attr unit s
0	0	0	0
0	9	1642.084123897813	1
0	10	1907.405426836842	0
0	39	2384.908348365368	1
0	43	2736.546515883459	2
0	44	3034.783859358486	1
0	68	3335.416618108352	2
0	73	3486.388327346171	1
0	109	4558.880925409368	0
0	400	7928.962759141763	1
0	404	8274.787717222762	2
0	408	8369.762262635791	3
0	409	8987.595360861041	2
0	430	9386.268454970874	3
0	457	10173.667553018865	4
0	460	10189.539674365353	3
0	491	10493.859748319299	2
0	521	11223.764940381253	1
0	544	11834.96017839255	0
0	553	11882.456841370447	1
0	563	12046.772258357048	0
0	812	21899.191594139633	1
0	818	21983.550178391183	0
0	971	25940.4024166337	1
0	975	26953.402927866672	2
0	979	27064.248785005848	3
0	983	27104.7402446555	4
0	984	27353.519113961386	3
0	998	27742.208782607022	4
0	1014	28068.633976154312	3
0	1028	28247.687470559443	4
0	1056	28746.847303700663	3
0	1084	28971.375664955125	4
0	1094	29075.800643409979	5
0	1105	29358.374947103175	6
0	1139	29838.288166247222	7
0	1167	30155.553560558275	6
0	1175	30279.368356721241	5
0	1194	30422.633733019755	6
0	1208	30550.723403706796	7
0	1234	31104.176329002353	6
0	1279	31932.754186402452	5
0	1287	31971.821905274449	4
0	1290	31977.391719901253	3
0	1311	32194.278461172099	4
0	1328	32426.667627423771	5
0	1373	33051.385482589934	4
0	1486	34185.446501447706	3
0	1497	34236.19419650484	2
0	1521	34322.408382731592	3
0	1528	34348.27388781745	4
0	1541	34436.403418209007	5
0	1562	34668.379103919724	6
0	1620	35800.137277897389	5
0	1626	35920.0506006498	4
0	1634	35974.252947098809	3
0	1647	36113.10553027191	2
0	1677	36230.982661810039	1
0	1706	36434.82927550699	2
0	1739	36600.534232080529	1
0	1788	37286.811459551814	0
0	1879	38378.295382060965	1
0	1888	38569.264473802217	0
0	1924	39254.955415391731	1
0	1932	39600.706060875312	0
0	1936	39611.49639024726	1
0	1957	39803.829485815321	2
0	1991	40286.656073383005	3
0	2013	40339.235232864698	4
0	2021	40414.137169185323	3
0	2062	41043.742468741511	2
0	2068	41212.088024447851	1
0	2144	42016.9132651806	2
0	2175	43742.24417939314	3
0	2181	43996.256022017717	2
0	2219	44801.467866727277	1
0	2258	45310.098388229186	2
0	2306	46613.888830310967	3
0	2310	46836.406124917892	4
0	2311	47699.300015508861	3
0	2339	48503.841050263562	2
0	2348	48538.52138504741	3
0	2357	48877.249805607976	4
0	2370	49225.375457088979	3
0	2376	49324.551264481422	2
0	2417	49958.471295186834	3
0	2425	50039.140136519408	2
0	2457	50260.33071062458	3
0	2488	50521.022199672154	2
0	2494	50550.971561127928	1
0	2536	50791.200480003574	0
0	2620	51370.478780612978	1
0	2622	51381.069728235118	2
0	2628	51469.474798992181	1
0	2673	52173.916881068826	0
0	2682	52443.530118591211	1
0	2693	52707.034108464156	0
0	2815	54168.095955125564	1
0	2819	54288.488269834192	2
0	2823	54407.812213108096	3
0	2827	54903.071236119964	4
0	2831	54996.86750813502	5
0	2832	55582.168075947537	4
0	2838	55687.114232005045	3
0	2875	55863.134784811596	4
0	2891	56003.360607285759	5
0	2901	56041.895903346723	4
0	2910	56102.255856078489	5
0	2924	56205.051324162584	6
0	2979	57411.932323998277	5
0	2990	57612.377373833942	4
0	3038	57952.398549743802	3
0	3043	57975.371828407261	2
0	3059	58235.591510647626	1
0	3148	59241.752350442597	0
0	3300	62222.768690148274	1
0	3303	62648.34539937867	0
0	3310	62651.414947460161	1
0	3326	62987.472380286899	0
0	3335	63099.303585423298	1
0	3361	63407.452434794068	2
0	3380	63655.941222166714	1
0	3428	64260.304835200589	0
0	3524	64970.780557662743	1
0	3566	65388.870952861914	2
0	3583	65614.830202458077	1
0	3617	66134.874844857919	0
0	3873	70946.259544305698	1
0	3877	71024.915713551385	2
0	3881	71336.547495522628	3
0	3885	71436.173305569005	4
0	3891	72028.44856616679	5
0	3893	72038.758917958675	6
0	3894	72558.576549687966	5
0	3902	72759.093798664535	4
0	3916	72817.320169068035	5
0	3969	73646.838883463223	4
0	4005	73907.098597167245	3
0	4021	73958.022831453951	2
0	4107	74778.466262855667	1
0	4160	75781.058207971786	0
0	4183	76141.116075262652	1
0	4192	76314.280624538967	0
0	4228	76615.211880791008	1
0	4277	77261.854925344678	2
0	4282	77549.13533113088	1
0	4286	77556.266548777214	2
0	4340	78492.721610298047	3
0	4342	78507.801600308649	4
0	4346	78713.278416074492	5
0	4352	78924.48510663734	4
0	4383	79358.699575935781	5
0	4405	79734.832404054358	6
0	4410	79877.062679180305	5
0	4464	80610.774912066907	6
0	4465	81086.553157782809	5
0	4476	81330.859466105831	4
0	4484	81438.686101651871	3
0	4529	81851.41096454152	2
0	4556	81993.706512054991	3
0	4594	82288.459349786972	2
0	4598	82299.754221142779	3
0	4610	82425.565422937064	4
0	4620	82675.747212402271	3
0	4624	82675.778068357193	4
0	4656	83048.117722336541	5
0	4659	83107.325275767028	4
0	4677	83352.988863368552	3
0	4802	85538.614676180062	2
0	4830	85916.289416979125	1
0	4881	86443.264754913538	2
0	4885	86456.107239568959	3
0	4925	86897.955261336973	2
0	4928	86904.024066711744	1
0	4937	86970.417510484481	2
0	4939	86977.527133340522	3
0	4980	87291.583238855389	2
0	5041	87967.954505361919	3
0	5067	88507.715413100615	2
0	5078	88590.828518367041	1
0	5086	88636.150394912652	0
0	5097	88755.928803943235	1
0	5113	88809.7299918145	0
0	5311	90244.485817068521	1
0	5312	90779.582187700955	0
0	5346	91374.23755518106	1
0	5347	91391.678224516022	0
0	5731	104008.964622170199	1
0	5743	104160.460329777605	2
0	5754	104322.222966082238	1
0	5797	105430.846938270931	0
0	5877	106418.606295809738	1
0	5886	107405.744301680221	2
0	5905	107784.505199448052	1
0	5926	107877.465788860794	0
0	5934	107991.922316569765	1
0	5997	108460.21906724248	0
0	6029	109097.507725476521	1
0	6084	109762.082231812815	0
0	6096	109829.36251590525	1
0	6116	110215.114155507002	2
0	6118	110250.704512225877	3
0	6119	110349.776280548371	2
0	6128	110516.586101708731	3
0	6146	110973.409493981186	2
0	6154	111141.161486995727	1
0	6172	111383.341752397731	2
0	6176	111412.549101400341	1
0	6224	111959.802803344519	0
0	6255	112274.774058718804	1
0	6295	112604.630237188967	0
0	6314	112740.400588909239	1
0	6341	112953.43005485252	0
0	6362	113100.40259682548	1
0	6370	113233.616636675593	0
0	6374	113246.177588648756	1
0	6413	113673.518122836293	2
0	6454	114441.62319017588	1
0	6507	115188.230236886067	0
0	6652	118705.246358256172	1
0	6653	118826.002249363318	0
0	6794	121201.163045742536	1
0	6797	121818.305840236417	0
0	6825	122359.763897028266	1
0	6852	122866.370565356603	2
0	6875	123312.754201893993	1
0	6901	123896.843084246354	2
0	6905	123929.479381751685	1
0	6926	124266.998653331243	0
0	7053	126073.050509897985	1
0	7062	126194.821342239478	0
0	7101	126647.52084197493	1
0	7114	126802.832648515725	2
0	7115	126837.363022823831	1
0	7140	127568.615000471295	0
0	7181	128250.515087498111	1
0	7210	128567.138588469718	2
0	7221	128707.694690974191	1
0	7225	128712.687541803944	2
0	7245	128938.945622791035	1
0	7248	128948.777413342002	0
0	7689	138614.830019218187	1
0	7705	139023.659116763695	0
0	7967	146253.273534027947	1
0	7968	146363.072848118418	0
0	8100	147581.011315355317	1
0	8102	147624.920649478768	2
0	8116	148284.706072314606	3
0	8117	149450.036925343897	2
0	8126	149730.298618647962	3
0	8150	150330.310393643329	4
0	8159	150460.722955910737	5
0	8182	151528.290593591126	4
0	8191	151718.451876819612	5
0	8215	152524.788002146785	6
0	8223	152753.264492184694	5
0	8234	152811.733769432492	4
0	8255	153020.343788065446	5
0	8276	153219.750171465405	6
0	8293	153290.361312847442	7
0	8349	154269.861066936784	8
0	8365	154617.147032101207	7
0	8376	154696.23490571606	6
0	8427	155225.786836334361	7
0	8431	155478.453259073956	6
0	8466	155707.537928644784	5
0	8470	155709.776151881616	6
0	8493	155960.991737542107	7
0	8494	155975.192094376783	6
0	8497	155980.833678982855	5
0	8559	156608.28649045585	6
0	8563	156655.008241222562	7
0	8583	157327.146487262924	8
0	8584	157351.414556625702	7
0	8607	157514.478173410015	6
0	8612	157519.938946593874	5
0	8688	157864.126202983465	4
0	8720	158142.508885014907	5
0	8728	158522.022776879419	4
0	8779	159162.56735226835	3
0	8802	159633.621547823477	2
0	8887	160510.861718203089	1
0	8901	160641.165030715889	2
0	8936	161064.446447852272	3
0	8972	161976.766330328277	4
0	9005	162579.917978850082	3
0	9031	162790.841792566836	4
0	9045	163223.604154431835	5
0	9051	163441.238988941304	6
0	9070	163826.826712652278	5
0	9086	164064.391401485612	6
0	9092	164249.318848575389	5
0	9133	164959.278722548185	4
0	9211	165665.678336097029	5
0	9225	166143.577874268291	6
0	9244	166773.627552864449	7
0	9250	166987.714790560645	8
0	9254	167446.418357731482	9
0	9255	167708.436100395438	8
0	9261	167803.018964762543	7
0	9272	168007.071503280333	8
0	9283	168136.026677871523	9
0	9293	168235.956867147989	10
0	9318	168679.054798651935	9
0	9321	168750.589226263518	8
0	9324	168752.9097228586	7
0	9423	169304.928391917455	8
0	9476	169750.423688804672	9
0	9503	170064.322572831125	8
0	9548	170984.970794013996	9
0	9560	171332.545718539636	10
0	9576	172291.878277191954	11
0	9577	172516.246068594302	10
0	9605	172793.653316485693	9
0	9619	172962.368060014823	8
0	9671	173355.064993021888	7
0	9706	174265.960642346044	6
0	9727	174881.135360634047	7
0	9735	174970.358176256793	6
0	9772	175483.781520032463	7
0	9850	177017.113099365062	8
0	9851	177076.91604735409	7
0	9857	177120.51573150322	6
0	9895	177538.535573824037	5
0	9911	177650.100682139724	4
0	9995	178176.629021518312	3
0	10002	178180.780676250388	4
0	10051	178597.563321223118	5
0	10082	179209.868793770998	4
0	10143	179881.855348054547	5
0	10154	180156.623734374275	4
0	10237	181190.443973052016	5
0	10238	182227.212919047542	4
0	10259	182456.411824623786	3
0	10282	182732.65851541504	2
0	10293	182800.301611242399	3
0	10341	183189.155232317903	2
0	10390	183711.471596629409	1
0	10442	184070.042534023882	0
0	10558	185892.858692628259	1
0	10566	186130.744479016377	0
0	10570	186169.026034420119	1
0	10594	186596.057634923765	0
0	10940	196253.940919447093	1
0	10949	196302.180661369713	2
0	10960	196448.721602063886	3
0	10976	196954.091514500238	4
0	10978	197081.140021368789	5
0	10979	197257.966311579315	4
0	10995	197515.120860944214	3
0	11040	199329.733438894804	2
0	11099	199994.519337082231	3
0	11110	200286.319962806242	2
0	11143	200590.622199865652	3
0	11158	200762.871711377696	4
0	11171	201079.131720786552	3
0	11195	201447.660056777062	4
0	11216	202042.506619986651	3
0	11227	202158.8625854312	2
0	11286	202906.388002464433	3
0	11315	204277.012276830131	2
0	11331	204466.547937328688	1
0	11356	204796.090412828967	0
0	11590	209038.797597035386	1
0	11593	209223.939689839209	0
0	11597	209226.598410074908	1
0	11616	209477.284317465543	2
0	11625	209907.291104689605	1
0	11633	210142.470670625698	0
0	11662	210659.328030546527	1
0	11707	212350.714216439558	0
0	11764	213217.379197663854	1
0	11768	213342.469846569373	2
0	11769	213503.837471455305	1
0	11780	213548.791348572877	2
0	11784	213700.876069791516	1
0	11804	213884.89367285848	0
0	11813	213935.690462350386	1
0	11836	214088.560022241237	0
0	11897	214396.986528326115	1
0	11905	214537.228819965532	0
0	12133	218151.659802450615	1
0	12138	218432.22288341748	0
0	12144	218491.985229995095	1
0	12151	218582.781013780244	2
0	12170	218971.551470234776	3
0	12205	219982.864964140478	2
0	12208	219997.81848545649	1
0	12220	220008.906339542483	2
0	12230	220043.318134432675	3
0	12266	220578.009149895817	2
0	12287	220737.918783018288	3
0	12328	221090.58822507328	4
0	12351	221390.908195263622	3
0	12365	221491.202485941439	4
0	12408	221993.694727761508	3
0	12471	223356.40689889475	2
0	12492	223507.312244039887	1
0	12533	224130.931254787168	0
0	12565	224479.82966720909	1
0	12566	224577.34447858761	0
0	12605	225425.461663834518	1
0	12621	225771.438955447958	2
0	12622	225842.514639803211	1
0	12640	226224.271028396453	0
0	13174	235617.257670338273	1
0	13180	235729.625357768737	0
0	13208	236108.063354426052	1
0	13209	236155.522333927985	0
0	13270	237396.865893935857	1
0	13276	237424.569554985089	2
0	13281	237446.421739632204	3
0	13297	237644.533622120801	4
0	13318	238001.954127527248	3
0	13347	238685.467702823138	4
0	13348	238899.508369002994	3
0	13366	239404.867432416115	2
0	13380	239557.54340893116	3
0	13402	240076.277763492286	2
0	13413	240228.373985353105	3
0	13422	240340.018807405401	2
0	13437	240734.758476423347	1
0	13497	241117.605190463824	0
0	13501	241138.05531165751	1
0	13510	241177.41708972122	2
0	13513	241192.132115119755	1
0	13527	241271.752062581767	2
0	13568	241705.795548096386	3
0	13572	241833.304834430074	4
0	13573	241839.07218395687	3
0	13594	242113.637825538623	4
0	13618	242244.313497816815	5
0	13629	242370.083789716243	6
0	13631	242382.56686214615	7
0	13632	242385.952762187522	6
0	13703	242721.508480349635	7
0	13721	242828.456458568417	8
0	13758	243221.694858833738	9
0	13796	244513.438691934513	8
0	13799	244526.79709036122	7
0	13843	245014.779653368736	8
0	13851	245321.523197554029	7
0	13904	247339.577650410444	6
0	13917	247820.779207969596	5
0	13945	248233.511569391532	4
0	13968	248494.866970966287	5
0	13989	248657.663015392874	4
0	14023	248866.05421855725	5
0	14099	250879.392508671955	6
0	14118	251934.620961463029	7
0	14134	252548.008007545366	8
0	14138	252571.818100723885	9
0	14142	252986.750368481346	10
0	14146	254115.602149442251	11
0	14150	254346.402762332075	12
0	14151	254587.453193445252	11
0	14167	254791.925664741806	10
0	14180	254959.704633164539	9
0	14255	255928.501644426703	8
0	14284	256271.645897287691	9
0	14335	256857.05837596872	8
0	14368	257270.190904094206	9
0	14387	257656.357089803859	10
0	14389	257713.535099251678	11
0	14393	257730.746081707166	12
0	14397	257806.773422063625	13
0	14420	258312.224007929219	12
0	14456	258586.547021161813	11
0	14500	259318.059198468329	12
0	14528	260612.6500857566	13
0	14535	260690.888732264704	14
0	14556	261335.741770878539	13
0	14564	261423.446199802254	12
0	14592	261763.879745007449	11
0	14715	263885.003664733631	10
0	14735	264113.906251239004	9
0	14757	264291.513689105341	10
0	14791	265028.135846648636	11
0	14819	265502.614267186762	10
0	14887	266511.944965300035	11
0	14888	266519.653306744968	10
0	14937	268154.765776441447	11
0	14945	268507.556069821727	10
0	14976	269201.840128726755	11
0	14980	269292.689917779367	10
0	14986	269313.719945005581	11
0	14997	269424.733799782028	10
0	15057	269942.190051316904	9
0	15094	270522.669503724323	10
0	15114	270946.354973882704	9
0	15120	271174.74625357293	8
0	15135	271290.094888014843	7
0	15218	271976.510362084648	8
0	15221	272116.082802235869	7
0	15240	272254.484408194719	8
0	15253	272522.71501173956	7
0	15273	272763.815809805424	6
0	15342	273251.265173358598	7
0	15363	273611.069079654699	8
0	15367	273697.39460204106	7
0	15393	273830.472561705641	8
0	15434	274371.305225346442	9
0	15440	274485.635038699894	8
0	15476	274755.614464295941	7
0	15500	274853.839092769314	8
0	15506	274910.609873603523	9
0	15582	276083.74061712747	8
0	15647	277182.726788239755	7
0	15653	277207.891389056616	8
0	15677	278176.643215316561	7
0	15721	278511.398233040464	8
0	15722	278561.195327063834	7
0	15728	278618.661806903591	6
0	15768	278893.088896645564	7
0	15777	279077.490391447138	6
0	15800	279228.880519780643	5
0	15815	279338.999041252845	4
0	15888	279668.131148887062	3
0	15898	279689.842351755915	2
0	16032	280688.300162445347	3
0	16084	281766.225707553118	2
0	16110	282649.438617391698	1
0	16138	283338.907200440586	2
0	16168	284515.528682716233	3
0	16174	285135.345126712575	4
0	16175	285259.053917123962	3
0	16188	285621.866588937322	2
0	16225	285992.805237025018	1
0	16259	286546.826979669727	0
0	16268	286585.171352868766	1
0	16286	286780.288814400503	2
0	16323	287076.362875074623	3
0	16343	287600.992318935709	2
0	16409	289032.763728907666	1
0	16447	289374.728811164416	0
0	16591	292068.945359312289	1
0	16592	292230.728030045032	0
0	16767	294956.626751621069	1
0	16772	295032.521642568735	0
0	16976	297138.947003723149	1
0	16992	297450.944476469383	0
0	17020	297785.514752982514	1
0	17034	298139.966795128348	0
0	17048	298226.606105735967	1
0	17049	298263.678639201489	0
0	17109	299034.10125864314	1
0	17118	299342.943407664789	0
0	17141	299546.599857882433	1
0	17177	300000.017753443191	2
0	17179	300004.565355158627	3
0	17183	300204.980971373961	2
0	17191	300290.286253859325	1
0	17236	300546.950518518152	2
0	17293	301203.480726345764	1
0	17296	301231.878099574674	0
0	17317	301340.814958655339	1
0	17338	301558.215549841138	2
0	17382	301876.009689857726	1
0	17477	302635.414808677288	0
0	17877	310742.041269397111	1
0	17901	311162.645455693876	2
0	17907	311428.359125244284	1
0	17910	311494.753345531151	0
0	18050	313780.533780299199	1
0	18054	313969.451930425315	0
0	18067	314080.358144023332	1
0	18091	314277.529954452247	2
0	18120	315330.548782951133	1
0	18131	315406.701256779091	2
0	18145	315554.313612628257	3
0	18193	315991.302310099115	4
0	18217	316235.84636397271	3
0	18235	316472.537925580947	2
0	18274	316812.46913090633	3
0	18282	317166.961513968973	4
0	18286	318216.68063327467	5
0	18290	318661.762103462235	6
0	18297	319593.898722765381	5
0	18305	319699.308915862132	4
0	18372	320091.796634463617	3
0	18446	320636.567103212829	4
0	18452	320697.997481844167	3
0	18455	320712.621128056311	2
0	18478	320913.300637358923	3
0	18507	321405.034917391305	4
0	18515	321578.219615593564	5
0	18545	322414.106825027397	6
0	18546	322427.282144469336	5
0	18561	322662.752249718386	4
0	18570	322818.4954573996	3
0	18596	323048.177691612811	4
0	18599	323070.043328567725	3
0	18673	323589.213056193209	2
0	18708	323894.645169153181	3
0	18709	324289.049252078615	2
0	18753	324856.111670628381	1
0	18758	324896.810570940806	0
0	19014	328350.529636404255	1
0	19036	328930.917734858089	2
0	19047	329033.491888896854	1
0	19068	329317.139707545629	2
0	19097	329513.400955964141	3
0	19098	329549.102264417383	2
0	19136	330074.848998536335	1
0	19154	330220.721484270761	2
0	19161	330245.897334545051	1
0	19167	330257.400622372103	0
0	19234	330668.572848974236	1
0	19275	331360.60269333376	2
0	19276	331379.448541393788	1
0	19289	331620.05142547324	0
0	19433	333216.592798483744	1
0	19456	333791.320421571031	0
0	19614	336301.254819313406	1
0	19615	336328.004790756549	0
0	19695	339087.650891700818	1
0	19704	339230.064922019688	2
0	19712	339423.736445283355	1
0	19761	339818.114696887442	2
0	19762	340077.88497789027	1
0	19770	340145.03058914385	0
0	19996	342862.442454722966	1
0	20000	342929.038245771836	0
0	20025	343185.007200558382	1
0	20047	343477.298211676894	2
0	20078	344124.229908397977	3
0	20114	344605.361320731854	4
0	20140	344941.696446640679	3
0	20166	345434.983229861501	2
0	20199	345879.898490711996	1
0	20246	346179.28066872258	2
0	20259	346256.921969742655	3
0	20263	346276.0622257132	2
0	20305	346860.204508732851	1
0	20362	348714.772026597957	0
0	20374	348749.830351298887	1
0	20387	348946.991314777658	0
0	20391	348964.717920148965	1
0	20417	349163.105640283828	0
0	20521	350500.915401898856	1
0	20549	351050.103189623919	0
0	20607	351557.764107130524	1
0	20611	351608.401473097179	2
0	20617	351928.232273285511	1
0	20621	351986.525860122917	2
0	20622	352004.241641883608	1
0	20672	352808.427531248981	2
0	20687	353438.516133818564	3
0	20708	353955.738640131689	4
0	20709	354009.545069390611	3
0	20737	354363.624075571748	4
0	20738	354443.017641924701	3
0	20751	354678.729721754535	2
0	20779	354822.72886548077	1
0	20785	354862.601048726909	2
0	20809	354977.21020097471	3
0	20811	355004.4580432609	4
0	20815	355030.775127294286	3
0	20865	355371.669555379443	2
0	20885	355500.72300051457	3
0	20901	355639.896403561306	4
0	20950	356217.646785568056	3
0	20967	356316.457155741742	2
0	21041	356898.748652220238	3
0	21060	357841.741894169783	4
0	21071	357992.350568648382	3
0	21076	358020.320086335363	2
0	21093	358101.030857258188	3
0	21104	358177.510026053474	2
0	21110	358268.682568244631	1
0	21144	358486.291076017572	0
0	21250	359928.191321882877	1
0	21279	360482.539499597444	0
0	21478	364183.62218943758	1
0	21479	364394.110539569065	0
0	21493	364585.175140491718	1
0	21501	364734.067591112903	0
0	21623	366433.567543512156	1
0	21635	366589.986561384021	0
0	21876	374404.890234131831	1
0	21880	374606.905822241473	2
0	21884	374674.301953688261	3
0	21885	375221.167157525635	2
0	21904	375652.942309812487	3
0	21915	375842.54082041961	4
0	21941	376780.426970861002	3
0	21955	376850.859037250748	4
0	21968	377126.688231257827	3
0	21987	377436.87800025217	2
0	22012	377662.000274648974	1
0	22042	377859.057032117921	0
0	22146	379801.821204701815	1
0	22153	379838.188800970783	2
0	22172	380471.579706715264	3
0	22188	380787.032655073698	2
0	22204	380918.872373896342	3
0	22230	381706.494939013768	2
0	22241	381831.154231502086	3
0	22250	381900.693867913694	2
0	22253	381902.803991334976	1
0	22273	382032.992783137319	0
0	22701	386967.717298252214	1
0	22703	386993.981516869746	2
0	22707	387037.272615617783	1
0	22727	387294.254724782484	0
0	22736	387336.769123848899	1
0	22745	387519.547035065416	0
0	22786	387658.809966664822	1
0	22804	387824.304181622983	0
0	22874	388271.34532112298	1
0	22893	388364.521976925672	0
0	22899	388378.310711361674	1
0	22934	388903.457277249617	0
0	23145	391236.721001171422	1
0	23148	391271.709315362699	0
0	23155	391287.43890979829	1
0	23176	391493.127222694045	0
0	23189	391541.378058086524	1
0	23199	391619.229096641221	2
0	23205	391689.87581287941	1
0	23282	392622.783563608928	2
0	23305	393207.258006253399	1
0	23348	394330.74786059853	2
0	23359	394454.105204888967	1
0	23380	394664.692106562387	0
0	23423	394937.373035990937	1
0	23427	395016.574068602047	2
0	23431	395279.671535446794	3
0	23432	395786.280451947324	2
0	23479	396244.104768690217	3
0	23490	396322.701899477184	2
0	23496	396345.085790948112	1
0	23557	396637.591244819458	0
0	23991	402565.342352749992	1
0	23995	402819.567167280103	2
0	23999	403595.379944659734	3
0	24000	404289.077661310043	2
0	24024	404480.086909883704	3
0	24032	405223.223063385624	2
0	24040	405289.263618120046	1
0	24061	405358.632246253229	2
0	24088	405671.483717846567	1
0	24114	405833.093541707099	0
0	24227	406752.298616530181	1
0	24248	406997.092454966942	2
0	24284	407734.535104925285	3
0	24288	407976.728560599774	4
0	24292	408172.809575561457	5
0	24293	408866.270161514086	4
0	24321	410082.518052311673	3
0	24347	410404.328086346421	2
0	24415	411186.475205616135	1
0	24440	411532.672332001847	0
0	24506	412251.503986935057	1
0	24507	412313.083287317294	0
0	24959	420595.076887057464	1
0	24963	421054.964674426296	2
0	24964	421060.979790580048	1
0	24975	421435.758906661931	0
0	25259	426474.71328612546	1
0	25262	426575.590197948943	0
0	25499	435466.350915547987	1
0	25503	435722.912706381411	2
0	25507	435863.006960780485	3
0	25508	436063.319134982008	2
0	25532	436464.40376446333	3
0	25568	437814.173297486417	4
0	25572	438068.708022898205	5
0	25576	438400.013444116464	6
0	25577	438480.340144712948	5
0	25603	439074.557313168083	4
0	25609	439144.214074974282	3
0	25625	439358.395316978414	4
0	25683	439964.666861911506	5
0	25689	440139.866243290791	4
0	25698	440188.321784804607	5
0	25706	440292.527536861475	4
0	25776	440662.372591612558	5
0	25803	441262.178376731107	4
0	25839	441744.882664107579	5
0	25868	442611.284964001547	4
0	25897	442855.786883061689	5
0	25925	444064.054695709989	4
0	25936	444112.624704476047	3
0	25983	444326.652115607256	4
0	26028	444750.376321450677	5
0	26029	444770.064765943754	4
0	26034	444878.255566610206	3
0	26050	445031.37592633637	4
0	26062	445317.467058484246	5
0	26069	445384.233520184494	6
0	26093	445936.882839647985	5
0	26099	446005.235361268778	4
0	26139	446522.509102135161	3
0	26213	447059.578941005022	4
0	26228	447259.207288038469	3
0	26284	448409.313209069925	4
0	26285	448642.149613133844	3
0	26296	448806.359831010407	2
0	26307	448966.255490439995	3
0	26363	450354.630081358945	4
0	26371	450808.482246031854	3
0	26384	451058.976359785828	2
0	26400	451114.696168791665	1
0	26403	451122.289529856722	0
0	26613	453233.857950490335	1
0	26617	453438.402849239089	0
0	26680	454267.785374559107	1
0	26683	454442.36556113002	0
0	26699	454598.86430444125	1
0	26731	454983.724918404977	2
0	26760	455345.263655891933	1
0	26823	456337.822150456111	0
0	26833	456425.592426115001	1
0	26885	456994.352689040407	2
0	26893	457263.130033182128	1
0	26950	457821.048927627493	2
0	26953	458044.071092264545	1
0	27021	459225.755986727256	0
0	27069	459791.518296833966	1
0	27075	459815.539555707997	2
0	27094	460342.883358833426	1
0	27120	460625.45495090237	0
0	27395	465575.978766027859	1
0	27396	465753.772009629204	0
0	27481	467419.543592638615	1
0	27492	467710.219313549995	0
0	27806	474373.90192950562	1
0	27807	474384.969771281794	0
0	28110	483617.906496008914	1
0	28112	483651.907612231041	2
0	28114	483726.848426379588	3
0	28115	484202.93880504301	2
0	28141	484805.304945940411	1
0	28149	484835.972014508055	0
0	28153	484843.066907174238	1
0	28164	484919.987133275349	0
0	28331	485962.267929470435	1
0	28349	486320.823161753527	0
0	28424	488794.316742929855	1
0	28426	488801.759905935619	2
0	28437	488899.746310783192	1
0	28459	489047.727386527296	2
0	28505	490194.771499381059	3
0	28509	490208.528662383113	4
0	28537	491637.99388894311	3
0	28540	491744.805673022611	2
0	28561	492009.646852894919	3
0	28562	492035.293229482521	2
0	28618	492582.074026858949	3
0	28621	492723.474525842211	2
0	28644	493087.513980431932	1
0	28649	493148.861238990275	0
0	29182	503662.172915811792	1
0	29186	504320.121614297491	2
0	29187	504606.685254372425	1
0	29198	504930.986425819243	0
0	29544	511619.65213155978	1
0	29552	511828.400985460223	0
0	29781	516291.605749888758	1
0	29782	516968.353175177438	0
0	29791	517004.861320762881	1
0	29815	517397.690437796748	2
0	29819	517529.977627925474	3
0	29820	518475.449273155732	2
0	29836	518922.998060448184	1
0	29884	519204.893796294301	2
0	29902	519552.596046557629	1
0	29920	519889.165078645796	0
0	29984	521794.337644085625	1
0	29985	522142.858233050861	0
0	30067	523221.457126544857	1
0	30072	523339.990955017172	0
0	30184	525103.43958507436	1
0	30185	525154.684702764968	0
0	30298	527231.412347602193	1
0	30299	527584.547029948023	0
0	30315	527748.971703462878	1
0	30329	528163.177377149359	0
0	30697	535128.19551481591	1
0	30698	535313.919860637223	0
0	30707	535452.268693415281	1
0	30723	535667.978491862817	2
0	30739	536075.004979531271	3
0	30746	536127.288198916209	4
0	30752	536244.452392136691	3
0	30763	536412.064099769246	2
0	30781	536524.044014889205	1
0	30789	536614.056827353109	0
0	30892	537734.418910952023	1
0	30900	538015.8442733952	0
0	30919	538275.418592950748	1
0	30927	538480.079021981604	0
0	31413	550905.416776066272	1
0	31421	551512.779976020395	0
0	31465	551816.329459683429	1
0	31481	551966.287409961409	0
0	31668	557364.170070713526	1
0	31669	557710.946483059209	0
0	31698	558066.221977429719	1
0	31701	558205.040483370659	0
0	31804	559726.257672556373	1
0	31835	559944.662288970288	0
0	32239	565383.04331136813	1
0	32240	565411.712405445545	0
0	32556	571724.876439472562	1
0	32570	572112.684044955939	2
0	32588	572577.624627463779	3
0	32593	572591.999337091693	4
0	32599	572680.908908458842	5
0	32600	572975.761666559718	4
0	32613	573180.648691065582	3
0	32624	573279.919056885118	4
0	32639	573488.609193819494	5
0	32640	573498.559874337175	4
0	32705	574059.387381055134	5
0	32746	574894.306561702224	6
0	32747	574976.830927433415	5
0	32753	574999.19217828801	4
0	32756	575000.513764720025	3
0	32801	575405.403518930198	2
0	32896	576217.682187699886	1
0	32914	576328.879894277227	2
0	32926	576425.135704552901	3
0	32942	576969.13945647079	2
0	32985	577389.96401178807	1
0	32993	577450.877231035701	0
0	33219	583745.613842883284	1
0	33230	583927.763258500658	0
0	33358	586524.075690614358	1
0	33359	586526.489547705913	0
0	33404	587314.350632508513	1
0	33406	587319.242039609171	2
0	33437	587981.332013452797	3
0	33454	588288.48560660791	2
0	33467	588422.598117292522	1
0	33480	588748.330766898459	0
0	33618	591132.215832992487	1
0	33619	591172.960365756128	0
0	33990	597398.038802861829	1
0	33991	598386.607399576066	0
0	34014	599100.259835499548	1
0	34018	599154.639344615859	0
0	34039	599463.767870311405	1
0	34061	599865.91629338232	2
0	34067	599932.441199104952	1
0	34093	600250.453727609633	0
0	34265	601622.945263787789	1
0	34287	601817.888219084465	2
0	34323	602378.616243511622	3
0	34336	602552.055321212245	2
0	34355	602760.640570630571	1
0	34403	603112.942826399	0
0	34580	606081.043619433168	1
0	34601	606343.95093869168	0
0	34676	607730.628818760757	1
0	34678	607826.667380476477	2
0	34679	608751.765949567812	1
0	34685	608819.997866233958	0
0	34830	611780.464567659358	1
0	34848	611971.458776349887	0
0	34864	612187.226878025291	1
0	34877	612620.006185832232	0
0	35015	614713.885371272482	1
0	35023	615035.310313127303	2
0	35024	615146.585503544627	1
0	35047	615458.025910473632	0
0	35219	617185.974128910842	1
0	35222	617282.830704517112	0
0	35229	617380.895699966834	1
0	35249	617974.472890825378	0
0	35374	620048.423018083361	1
0	35393	620678.226092132874	2
0	35394	621491.928780379513	1
0	35402	621605.399838748297	0
0	35503	622686.875031586892	1
0	35509	622939.784093839677	2
0	35526	623896.513817046621	3
0	35542	624054.697517416206	2
0	35625	626170.48715946412	3
0	35626	626877.056948041963	2
0	35629	626905.100139273741	1
0	35680	627429.950195091956	0
0	35786	628262.5836802877	1
0	35797	628360.788831769513	0
0	35806	628434.49992908483	1
0	35820	628525.431046829744	2
0	35855	629402.408091500706	3
0	35856	629775.869636971559	2
0	35872	629871.122675695411	3
0	35876	630107.514027539205	2
0	35917	630455.134938945757	1
0	35963	631364.942710326388	0
0	36012	631882.174979963987	1
0	36051	632122.853254246997	0
0	36217	634587.068863206294	1
0	36218	634867.172393240036	0
0	36304	636695.927978618739	1
0	36310	637065.473189838992	0
0	36616	646462.030813279395	1
0	36617	647852.936792515903	0
0	36753	650430.221013458914	1
0	36761	650914.930767803732	0
0	36795	651310.097676024872	1
0	36813	651580.710195572513	0
0	36938	652856.206466960445	1
0	36962	653123.568130451509	2
0	36967	654566.294010591848	1
0	36971	654573.368838718431	2
0	36986	654728.985278799852	3
0	36992	654868.770209315385	2
0	37022	655526.08781256476	1
0	37070	656050.806417624119	0
0	37122	657043.236910056143	1
0	37128	657159.065411392611	0
0	37170	657511.554787077522	1
0	37190	658135.857943043981	0
0	37388	661899.164875423143	1
0	37411	663179.961150403369	0
0	37435	663405.220632171042	1
0	37446	663712.189296948509	0
0	37638	666486.643699844074	1
0	37649	667062.737317846882	2
0	37650	667152.142474822519	1
0	37656	667396.743939557349	0
0	37884	671088.192925199498	1
0	37892	671309.744833812088	0
0	38158	676066.870538351485	1
0	38162	676275.16540160094	2
0	38166	676343.989155308887	3
0	38170	676484.963614014832	4
0	38174	676616.196253211007	5
0	38178	677173.755954162693	6
0	38181	677898.263283237768	5
0	38185	677923.409494546488	6
0	38199	677993.777105529972	5
0	38235	678296.637161476831	6
0	38241	678527.135856471578	7
0	38245	678562.043052941716	8
0	38249	678640.108484259136	7
0	38325	679486.316105549428	6
0	38352	681010.634912389576	5
0	38386	681493.747959304444	4
0	38412	681631.808607071977	3
0	38460	681858.000642972687	2
0	38507	682248.295336888249	3
0	38510	682257.287100903876	2
0	38540	682696.889616235493	3
0	38541	682863.637004416552	2
0	38547	682956.66434395486	1
0	38555	683004.92538645497	2
0	38607	683342.28014048677	3
0	38625	683642.43810645373	2
0	38721	684712.799882799278	1
0	38732	684812.111683572866	0
0	38960	687309.955928156683	1
0	38989	687938.123962475202	0
0	39065	688591.212024401773	1
0	39075	688754.254218579568	0
0	39103	690307.801024015054	1
0	39142	690793.893219192834	0
0	39262	692163.473874378275	1
0	39276	692750.692061206324	2
0	39280	693283.356773669773	3
0	39284	694200.217072915362	4
0	39288	694319.742528120048	5
0	39289	694396.104878374818	4
0	39312	694844.520633856217	3
0	39333	695186.940002003758	2
0	39384	696250.424898915706	3
0	39400	696668.13559683323	4
0	39404	696808.456861756441	5
0	39435	698320.427020372484	6
0	39436	698602.474666856654	5
0	39447	698859.730824159614	4
0	39483	699202.654806735144	3
0	39506	699622.000239793949	4
0	39547	699968.43780965403	3
0	39555	700023.778782760658	2
0	39618	700454.849368195152	1
0	39661	700994.747312528457	2
0	39734	702894.858030862645	1
0	39762	703703.557330185521	0
0	40239	713700.538870929324	1
0	40251	713758.038214135481	2
0	40270	713988.576836826174	3
0	40271	714043.479061146892	2
0	40292	714167.189354889869	1
0	40325	714426.093471271446	0
0	40900	725281.382054851653	1
0	40908	725341.073006507817	0
0	41115	728350.26012181835	1
0	41128	728469.164287528405	0
0	41251	730258.175823133466	1
0	41267	730403.68112236598	0
0	41365	733364.714130375018	1
0	41391	733818.480117280502	0
0	41407	734054.924398997916	1
0	41426	734761.04024964537	2
0	41447	735517.259469880954	1
0	41473	735855.109643368049	2
0	41497	737276.961657374099	3
0	41515	738192.97464226098	2
0	41538	738630.265302831525	1
0	41547	738686.420086481554	2
0	41578	739019.639130730775	1
0	41633	739711.980284233637	0
0	41637	739715.011367674901	1
0	41656	739977.655967808422	0
0	41765	741485.920353463993	1
0	41777	741885.733863202557	0
0	41934	744771.320717392614	1
0	41938	745046.875652800115	2
0	41939	745279.584805752331	1
0	41957	745547.548357666376	0
0	42013	745987.733723055543	1
0	42077	746636.408777849474	0
0	42276	749078.328867231703	1
0	42277	749158.301458353992	0
0	42504	752673.997809729689	1
0	42505	752679.743424177962	0
0	42586	753426.413780920273	1
0	42624	753847.651188131075	2
0	42633	754199.622518625912	1
0	42709	754833.979030426223	2
0	42713	755305.750213051728	3
0	42714	755380.039188127421	2
0	42727	755701.111773044142	1
0	42736	755778.527160553241	0
0	42934	758029.038989713033	1
0	42935	758034.816341325426	0
0	42956	758382.995292575967	1
0	42964	758473.703939655801	0
0	43026	760316.178234448284	1
0	43027	760338.660332029144	0
0	43080	761339.339210057408	1
0	43109	761688.404216589869	2
0	43110	761727.622726538727	1
0	43127	761801.070780008318	2
0	43170	762308.301191053843	3
0	43171	762522.878102572694	2
0	43187	762901.899104824339	1
0	43215	763045.102451680667	2
0	43239	763165.424176462198	3
0	43278	763947.622721257719	2
0	43299	764067.494331321371	3
0	43320	764224.268661864067	4
0	43359	764642.355283302698	5
0	43377	764928.39367675148	4
0	43421	765812.943487164564	5
0	43425	765852.812216338458	6
0	43436	766090.704616576966	5
0	43446	766200.727148949895	4
0	43512	766987.71096616036	3
0	43523	767012.83534340118	4
0	43530	767043.765851835294	5
0	43598	767828.916126640416	6
0	43607	767929.377600193512	5
0	43640	768511.092673871718	6
0	43641	768595.384844992996	5
0	43679	769011.924405288613	4
0	43692	769090.26577287903	3
0	43709	769300.866894998643	4
0	43742	769631.727332091668	5
0	43750	769881.144848548469	4
0	43766	770186.132289387745	5
0	43802	771070.219438643679	4
0	43838	771344.216393746404	3
0	43866	771489.568260885816	4
0	43892	771781.609436491689	5
0	43896	771832.720013087517	6
0	43897	771898.812295462893	5
0	43916	772101.271586016776	6
0	43977	772713.499656650112	5
0	44012	773006.026684565772	4
0	44051	773177.760895393936	3
0	44088	773941.687220233054	4
0	44092	773976.041579080515	5
0	44093	774563.392238588573	4
0	44152	775645.322006947477	3
0	44215	775981.53555418439	4
0	44248	776747.979501402337	3
0	44266	776930.791523013912	2
0	44300	777235.421166961715	1
0	44333	777534.64998819897	0
0	44530	782116.675232044676	1
0	44534	783880.124104720075	2
0	44535	784631.112880101304	1
0	44558	784914.083899635669	0
0	44569	785012.48949979829	1
0	44573	785140.033588883011	0
0	44635	785939.036564469259	1
0	44644	786093.188044492358	2
0	44655	786384.765645696313	3
0	44659	786628.221015879706	4
0	44681	787123.863201179444	3
0	44701	787315.084510957659	2
0	44766	788311.489745311811	1
0	44800	788673.612532187888	2
0	44801	788675.346581139379	1
0	44859	789002.133819034692	0
0	45272	796310.73226367296	1
0	45273	796479.340945460741	0
0	45279	796542.462580455428	1
0	45318	797743.550442767624	2
0	45325	797907.864394717876	3
0	45341	798899.641809581493	4
0	45342	798943.149754488054	3
0	45353	799229.544309975782	2
0	45393	800540.222119405513	1
0	45409	800668.85919459006	0
0	45626	806040.091368114237	1
0	45632	806111.691400275509	2
0	45641	806258.164544418621	3
0	45643	806259.834395014393	4
0	45646	806572.263706960182	3
0	45677	806972.869204153016	2
0	45680	807008.694195053177	1
0	45776	808083.016694148061	2
0	45797	808239.982628550814	1
0	45842	808650.24681698017	0
0	45851	808700.023875573858	1
0	45874	809145.085756651898	0
0	45901	809481.386083608455	1
0	45909	809553.936026825761	0
0	46129	812952.317098794554	1
0	46130	813247.141831101973	0
0	46158	813930.846904037911	1
0	46162	814035.203455241092	0
0	46213	814487.291338709153	1
0	46256	814986.673804029034	0
0	46384	817309.776884912089	1
0	46385	817365.44201622453	0
0	46528	820074.405859199669	1
0	46529	820673.448098251046	0
0	46756	824635.280635641661	1
0	46757	824901.488892666856	0
0	47125	833626.857831231292	1
0	47150	834424.717934913645	0
0	47213	835826.09137247828	1
0	47217	836161.976982575169	2
0	47266	837568.271150659049	1
0	47302	838068.599520451487	2
0	47305	838146.877566040622	1
0	47309	838184.552995545075	2
0	47318	838334.886933851933	1
0	47361	838702.97121326232	0
0	47612	844695.321293527233	1
0	47613	844818.997492976827	0
0	48194	855079.95912698481	1
0	48212	856053.043833640455	0
0	48238	856454.46250592068	1
0	48242	857067.048500395757	0
0	48785	872734.143469901093	1
0	48787	872786.669651942866	2
0	48791	873010.955911993402	3
0	48821	874039.958209856705	2
0	48830	874072.823756834691	3
0	48842	874373.632840493745	4
0	48856	874851.584246307947	5
0	48875	875663.09551263794	6
0	48891	875868.589828585044	7
0	48895	876128.732322562983	8
0	48896	876695.392270387339	7
0	48904	876877.202741584696	6
0	48907	876878.834923337442	5
0	48963	877419.998207061306	4
0	48983	877576.296189491624	3
0	49001	877807.675917909213	2
0	49134	878784.385147287125	3
0	49140	879328.554137305827	4
0	49142	879363.43532084215	5
0	49143	879825.610937020318	4
0	49161	880170.77272995788	3
0	49167	880198.877125889821	2
0	49208	880577.114206564134	1
0	49265	880919.209523986333	0
0	49311	881234.417508598123	1
0	49319	881367.07982985966	0
0	49388	882201.667836686938	1
0	49428	882655.807699423358	2
0	49433	882677.747267443333	3
0	49440	882763.319484455267	4
0	49456	883240.555075380627	5
0	49457	883702.08984771397	4
0	49473	883973.759852257613	5
0	49477	884023.014800305896	6
0	49489	884260.102044874122	7
0	49495	884587.10399651519	6
0	49511	884970.481835040471	5
0	49545	885386.656923281001	4
0	49548	885413.360258730788	3
0	49551	885441.57107087006	2
0	49594	885882.282491678509	3
0	49608	885987.668219829235	4
0	49617	886033.650510915633	3
0	49627	886057.49550408462	2
0	49638	886083.626928818317	1
0	49718	886627.657878622543	0
0	49957	890924.38153240711	1
0	49958	890935.46366019583	0
0	49990	891047.699317675011	1
0	50006	891228.163753889594	2
0	50007	891471.074413604109	1
0	50067	892206.295938202058	0
0	50381	899165.60601682572	1
0	50402	899696.189441315014	0
0	50423	899932.303689813031	1
0	50424	899972.548341126043	0
0	50475	900284.887027546282	1
0	50496	900736.678165016438	0
0	50513	900846.250068807672	1
0	50516	900886.525307717797	0
0	50552	901154.043461137345	1
0	50558	901193.616722687234	2
0	50595	901626.939472496927	1
0	50645	902168.969318756025	0
0	50780	903151.39106570094	1
0	50784	903170.442577088085	2
0	50785	903207.486206171425	1
0	50823	903816.774610054763	0
0	51057	908683.056393822004	1
0	51060	908752.361415407313	0
0	51198	912299.229183203089	1
0	51199	912974.007484164166	0
0	51210	913028.003219490218	1
0	51256	914156.508662213155	0
0	51342	915791.48675627807	1
0	51343	916287.138287646499	0
0	51477	918973.946182488637	1
0	51506	919417.914712423911	2
0	51574	920024.224916025428	1
0	51600	920818.403086537983	0
0	51624	921173.375577427521	1
0	51660	921559.637308872539	2
0	51664	921665.417112763112	3
0	51667	923073.031178687216	2
0	51676	923123.319055761539	3
0	51683	923258.093304077724	4
0	51696	923777.410457545617	3
0	51721	924006.082702584803	2
0	51740	924313.188566667509	3
0	51771	924558.311063904268	4
0	51815	925188.628879874814	5
0	51841	925922.631706348135	4
0	51869	926913.686278767209	3
0	51920	927710.357233363191	2
0	51936	927810.722503042654	1
0	51951	927964.636704735052	0
0	52112	930263.107645035987	1
0	52116	930562.306164070808	2
0	52120	932242.7965146313	3
0	52121	932367.762937617895	2
0	52174	934293.084056470645	1
0	52200	934632.213033499964	2
0	52214	934711.144975417955	3
0	52236	935077.681458317086	4
0	52242	935139.843511184809	5
0	52246	935988.374714384495	6
0	52247	936013.270483137975	5
0	52258	936194.684932297067	6
0	52262	936403.33283194029	5
0	52305	937858.958490701941	6
0	52314	938085.366982867397	5
0	52334	938269.862280647306	4
0	52384	938553.948916899753	5
0	52417	938777.816333684373	6
0	52431	939309.929395424664	5
0	52444	939455.790515164725	4
0	52451	939504.672951739253	3
0	52562	940259.449220512679	2
0	52642	941932.986037382001	3
0	52663	942552.882608865384	2
0	52709	943487.173973740369	1
0	52754	944475.758314838934	0
0	52773	944608.738282620839	1
0	52785	944703.842689381167	2
0	52790	944761.599401660899	1
0	52793	944775.971056287708	0
0	52972	946633.139318797232	1
0	53014	947075.900147209737	0
0	53177	950020.078176683253	1
0	53186	950136.984907013882	0
0	53217	950318.334741828744	1
0	53228	951246.222570770061	0
0	53368	955301.192115038504	1
0	53372	956687.602086207158	2
0	53373	957017.583726773885	1
0	53399	957504.724089136688	0
0	53408	957557.757430185979	1
0	53412	957604.028052984149	2
0	53458	958177.589879548151	3
0	53466	958291.711955559395	2
0	53473	958305.563910703559	3
0	53514	959229.252262415534	4
0	53528	959777.616267770202	5
0	53529	959844.877448094721	4
0	53585	961178.826998073306	5
0	53588	961604.103104436225	4
0	53602	961837.25848050986	5
0	53653	962661.093819476571	6
0	53657	962694.550392915822	5
0	53665	962769.153488209918	4
0	53670	962788.486279798638	3
0	53743	963453.94197302465	2
0	53768	963800.809689769294	1
0	53776	963859.855355828296	0
0	53929	966061.389430210441	1
0	53934	966121.083252224901	0
0	53967	966898.725184827845	1
0	54021	967966.682182099069	0
0	54193	972945.969202956742	1
0	54194	974241.291261063025	0
0	54235	975533.090899319416	1
0	54251	975783.142115565198	0
0	54364	978907.755913085887	1
0	54368	979106.912955978961	2
0	54369	979308.116568099804	1
0	54375	979388.454226891664	0
0	54421	979882.487543101067	1
0	54423	979893.956859620948	2
0	54424	980101.933359799314	1
0	54481	980550.33282093621	0
0	54712	983328.054821962129	1
0	54716	983467.500041233636	0
0	54768	984269.648877932241	1
0	54770	984269.762732741711	2
0	54792	985854.432434068372	3
0	54794	985908.691955827311	4
0	54802	986284.684631311312	3
0	54808	986289.730305207403	4
0	54856	986921.712756370268	3
0	54900	987138.128225877996	2
0	54955	987822.363545174528	3
0	54983	988331.541451197326	2
0	54990	988354.833445410355	3
0	55019	988610.374200400909	4
0	55031	988856.393194893502	5
0	55049	989121.106038620145	6
0	55061	989381.66887535919	7
0	55062	989552.243848801697	6
0	55102	989963.427015801655	7
0	55104	989974.622889730768	8
0	55105	989987.367525790661	7
0	55154	990725.50021283626	8
0	55155	990840.126447838533	7
0	55178	991286.715107396225	6
0	55191	991381.260604833563	5
0	55195	991397.890754068801	6
0	55200	991408.928624174179	5
0	55216	991537.829779513333	4
0	55224	991547.233421985205	5
0	55269	991858.68234963218	6
0	55304	992025.56813269484	7
0	55360	992522.177711433979	8
0	55361	992638.356856542748	7
0	55417	993155.675424741526	6
0	55475	993889.127672930899	5
0	55526	994493.361470164365	6
0	55540	994809.310948054341	7
0	55561	995296.012691496336	6
0	55584	995412.850399582439	5
0	55589	995460.3950212236	4
0	55610	995614.119952106557	3
0	55661	996081.064063213158	4
0	55675	996375.764246950923	3
0	55684	996401.071598244554	4
0	55688	996442.762001757052	5
0	55711	996810.502048547419	6
0	55713	996846.8506735209	7
0	55714	997072.356416936246	6
0	55722	997266.624193308733	5
0	55728	997304.061567871545	4
0	55876	999154.100239731579	5
0	55884	999681.890654552422	4
0	55908	999827.822099590614	5
0	55929	1000190.625351159156	4
0	55939	1000212.940001452732	3
0	56023	1001232.032263024642	4
0	56025	1001237.585400323024	5
0	56038	1001314.64900227419	4
0	56056	1001581.002349927092	3
0	56098	1002151.664807216362	2
0	56182	1003821.961713535034	3
0	56213	1005208.730086258293	4
0	56217	1005728.031643147702	5
0	56218	1006889.490955133344	4
0	56224	1006938.295295743612	5
0	56251	1007490.887777624186	6
0	56252	1007757.630403106983	5
0	56260	1007882.41608874769	4
0	56316	1008363.835329644766	3
0	56374	1008787.121320200016	2
0	56402	1008959.083487958985	3
0	56411	1009053.442784186351	4
0	56422	1009665.96101608486	3
0	56455	1009967.009506843971	2
0	56458	1009989.728912372778	1
0	56493	1010213.578813440657	0
0	56521	1010436.56567184636	1
0	56534	1010598.968109909995	0
0	56745	1015297.147852435515	1
0	56746	1016260.310413186081	0
0	56921	1018399.801345771793	1
0	56949	1019254.500623185529	0
0	57030	1019988.666494592626	1
0	57041	1020082.891505692835	0
0	57065	1020225.371211464349	1
0	57076	1020417.086325542495	2
0	57124	1021461.835002348129	1
0	57128	1021525.701629302042	2
0	57162	1022062.54979774707	1
0	57213	1022598.877894113696	2
0	57227	1022667.539122994935	3
0	57230	1022689.494171706177	2
0	57291	1023191.689167637048	1
0	57304	1023484.728488154937	2
0	57320	1023678.827396206515	1
0	57348	1024138.987556098103	0
0	57365	1024314.719309648164	1
0	57403	1024588.47397297073	0
0	57545	1026839.252361383943	1
0	57558	1027899.06512002946	0
0	57577	1028178.790777785828	1
0	57606	1028329.957524193084	2
0	57607	1028543.25468315423	1
0	57623	1028823.474555540171	2
0	57636	1029193.683771186138	1
0	57665	1029620.545574636817	0
0	57669	1029625.037040918179	1
0	57711	1029891.582014594811	0
0	57847	1032631.381397641033	1
0	57848	1032635.194648488696	0
0	57889	1033308.673022712338	1
0	57890	1033341.649265739654	0
0	58030	1036750.829241752346	1
0	58034	1038132.279119479188	2
0	58038	1038164.661773170834	3
0	58039	1038837.929622749319	2
0	58055	1039213.698846002712	1
0	58128	1041581.963002935069	0
0	58365	1044969.255675316339	1
0	58376	1045198.841985349086	2
0	58377	1045407.692244363541	1
0	58388	1045697.248007021769	0
0	58659	1053648.631351028046	1
0	58660	1054083.107973401816	0
0	58914	1057760.2431411224	1
0	58918	1057840.824884889829	2
0	58919	1058179.49027814361	1
0	58965	1058997.027903084308	2
0	58976	1059142.933571942609	1
0	59004	1060142.423900570469	0
0	59368	1070096.293829398981	1
0	59371	1070225.62929874178	0
0	59407	1070515.159367374854	1
0	59408	1070522.545340606659	0
0	59487	1071558.135264426744	1
0	59497	1072096.399397612971	2
0	59510	1072420.600976252043	1
0	59526	1072497.852948785516	0
0	59715	1077783.800888996522	1
0	59716	1078051.673993112653	0
0	59994	1083748.553327208218	1
0	60003	1083993.166506895339	2
0	60007	1084206.175316285577	3
0	60011	1085038.488390024683	4
0	60015	1085365.030111998878	5
0	60016	1085370.579079973612	4
0	60019	1085384.574596068782	3
0	60043	1085822.558454520291	4
0	60074	1086203.342147345521	5
0	60096	1087619.437003966639	4
0	60119	1087879.634514452558	3
0	60172	1088774.256213145963	4
0	60199	1089018.322343372423	5
0	60217	1089472.368110952008	4
0	60282	1090149.682096886156	3
0	60291	1090210.734756373243	2
0	60316	1090395.228936055845	1
0	60394	1091264.12453196331	2
0	60398	1091307.526526495228	3
0	60412	1092394.865312276673	4
0	60436	1092815.485565558841	3
0	60454	1092936.997640887588	4
0	60481	1093118.459877285435	5
0	60497	1093364.769875954103	4
0	60521	1093540.948164766652	5
0	60527	1093659.213521853669	4
0	60545	1094051.421213485104	3
0	60584	1094440.680500413417	4
0	60588	1094588.511789098903	5
0	60589	1094725.923001449442	4
0	60605	1094913.185531240415	3
0	60613	1094939.84330934007	4
0	60623	1095117.719240142274	5
0	60697	1095895.401126558157	6
0	60710	1096556.6494322706	7
0	60711	1096557.373585022525	6
0	60729	1096770.225477639557	5
0	60761	1097598.922799278703	4
0	60775	1097721.529279646617	5
0	60804	1098017.638260981847	4
0	60812	1098033.716789477729	3
0	60855	1098217.363584050497	2
0	60876	1098320.517066379429	3
0	60963	1098959.833770202109	2
0	61064	1100554.641333976593	3
0	61065	1101206.421836191592	2
0	61071	1101291.385300790242	1
0	61074	1101292.957742976015	0
0	61352	1103234.786744069954	1
0	61371	1103554.514859331221	0
0	61551	1106150.689614743938	1
0	61580	1106745.925771628514	2
0	61586	1108391.834197283548	3
0	61590	1108763.075920888463	4
0	61591	1108849.376024190876	3
0	61624	1109651.686595660121	2
0	61668	1110096.779751997195	1
0	61725	1110652.553594945093	0
0	61856	1113029.914588336454	1
0	61864	1113518.19850815777	0
0	61893	1114271.584097544471	1
0	61894	1114379.284830265525	0
0	62032	1118471.616033139978	1
0	62038	1118597.789559791658	2
0	62042	1118718.867368854161	3
0	62043	1118934.498604418004	2
0	62072	1119200.156062087488	3
0	62073	1119429.451859023902	2
0	62076	1119439.148686548785	1
0	62092	1119657.8973671154	0
0	62182	1120836.27535066594	1
0	62225	1121640.432595173975	0
0	62321	1124692.004551909998	1
0	62349	1125624.806145927645	0
0	62363	1125844.739700742732	1
0	62379	1127003.873112472588	0
0	62400	1127250.129919096345	1
0	62433	1127565.323115623807	0
0	62460	1127781.845576902426	1
0	62466	1127840.318940693081	2
0	62468	1127844.509477794553	3
0	62478	1127980.057070763826	2
0	62481	1128022.478433909265	1
0	62535	1128336.665688496501	0
0	62570	1128678.93572472066	1
0	62583	1128877.208183597622	2
0	62590	1129111.908781904519	3
0	62599	1129254.047826450878	2
0	62630	1129548.418163174561	3
0	62671	1130004.798099960323	4
0	62706	1130369.897565756206	3
0	62713	1130398.475723597715	4
0	62716	1130487.182081358587	3
0	62773	1131349.447881648236	4
0	62814	1132009.631562606508	5
0	62818	1132174.564430486777	6
0	62826	1132360.826089829361	5
0	62850	1132684.318865018949	6
0	62856	1132863.77960949435	5
0	62862	1132914.441270887125	4
0	62897	1133238.438703874019	3
0	62962	1133911.11078056878	4
0	62966	1134270.709160074129	3
0	63000	1134491.994791227405	4
0	63010	1134559.526414940212	3
0	63016	1134628.734425946107	2
0	63057	1134822.383144788761	1
0	63129	1135198.944183800798	2
0	63141	1135339.082393210638	3
0	63142	1135504.902768378463	2
0	63172	1135843.684173912426	1
0	63176	1135872.863141445494	2
0	63252	1137986.078579797812	3
0	63264	1138355.62122949817	4
0	63307	1139872.657404844339	5
0	63308	1140000.37714081535	4
0	63311	1140011.323587290102	3
0	63345	1140272.395942652376	2
0	63380	1140817.418528651065	1
0	63400	1140969.979909580876	2
0	63407	1141020.787032315915	1
0	63416	1141064.288321193615	2
0	63473	1141528.29302389774	1
0	63490	1141628.276059463853	0
0	63774	1145537.790388453329	1
0	63780	1146141.740128049981	2
0	63784	1146268.314723802202	3
0	63785	1146485.383704936552	2
0	63814	1147719.835635474339	3
0	63815	1148076.253896255294	2
0	63850	1148636.124248126814	1
0	63898	1149744.316667108705	0
0	63912	1149822.366735262656	1
0	63916	1149861.293728531745	0
0	63984	1150350.070226009046	1
0	63990	1150389.369976410415	0
0	64043	1150682.163571885026	1
0	64062	1151133.398188528209	2
0	64109	1151860.354328857675	3
0	64128	1152052.843774050822	4
0	64131	1153167.88329513609	3
0	64147	1153414.929321394753	4
0	64153	1153469.482972205172	3
0	64156	1153520.110747795489	2
0	64159	1153525.678029904229	1
0	64243	1154040.175358676654	2
0	64276	1154263.097016598729	3
0	64277	1154264.817146008757	2
0	64289	1154327.82084534227	1
0	64367	1154665.568110517715	2
0	64415	1155279.613520490223	1
0	64433	1155411.478643555379	0
0	64491	1155882.237770805879	1
0	64495	1156232.117143420348	2
0	64496	1156301.944493200374	1
0	64509	1156537.859990587121	0
0	64606	1157912.768228634813	1
0	64613	1158034.042718927894	2
0	64642	1158847.960617983508	3
0	64646	1158929.688701816659	4
0	64647	1159099.494338693893	3
0	64672	1159549.833099342775	2
0	64688	1159712.846275364241	3
0	64704	1160162.03490691034	4
0	64716	1160546.705183300272	3
0	64734	1160739.166690912943	4
0	64762	1161151.112023972229	3
0	64776	1161416.741783653763	4
0	64787	1161604.239967842419	3
0	64795	1161646.677521412669	2
0	64821	1161850.642413597037	3
0	64836	1161998.73782598769	2
0	64915	1162552.397498105712	3
0	64917	1162561.706167009436	4
0	64927	1162728.880937941062	5
0	64933	1162784.509326355085	4
0	64945	1162840.694241182362	5
0	64974	1163177.321884766338	4
0	64995	1163286.984677055744	5
0	65097	1164387.169323099318	4
0	65128	1164592.997053369365	3
0	65131	1164593.788988365633	2
0	65189	1165397.361842590716	1
0	65215	1165566.315926099591	2
0	65224	1165693.542910725312	3
0	65243	1165844.546972129885	4
0	65251	1166004.489396296195	5
0	65252	1166030.80077068761	4
0	65268	1166378.51436828636	5
0	65272	1166396.196650351842	6
0	65285	1166742.272429152887	5
0	65310	1167811.347454386909	4
0	65322	1167950.592416079417	5
0	65373	1168432.505438945327	4
0	65402	1168591.126751665911	5
0	65413	1168663.668072469381	6
0	65437	1168894.688012375858	7
0	65438	1168908.723391745674	6
0	65461	1169106.501880996856	5
0	65513	1169936.114458156441	6
0	65528	1170644.238162953116	7
0	65546	1171144.024924851651	6
0	65552	1171194.400486351966	7
0	65593	1171680.902184625111	6
0	65631	1171960.064135963238	5
0	65642	1172005.833410424214	4
0	65693	1172328.86051085895	5
0	65713	1172645.986595559144	6
0	65714	1172708.438950918539	5
0	65750	1173354.837282849251	4
0	65828	1173877.294320635039	3
0	65849	1174085.534067601583	4
0	65880	1174935.575840780952	3
0	65888	1174954.371974775141	2
0	65940	1175599.279936740221	1
0	65971	1176167.450248567037	2
0	65976	1176773.298915232473	1
0	65979	1176802.356100244051	0
0	66111	1179439.615662106784	1
0	66117	1179726.447963308552	2
0	66118	1179906.707808274008	1
0	66144	1180164.138873135692	0
0	66172	1180322.753943908186	1
0	66250	1181596.543690975118	0
0	66323	1182553.426064918809	1
0	66325	1182589.768592858663	2
0	66353	1182980.121012371044	3
0	66372	1183327.092434799872	4
0	66383	1184944.527184378413	3
0	66407	1185319.978577299401	4
0	66418	1185651.060957079929	5
0	66420	1185669.760671901972	6
0	66448	1186051.101944910859	5
0	66477	1186621.006523581432	6
0	66481	1186746.015044430956	7
0	66487	1186965.046915481283	8
0	66489	1186967.951126821765	9
0	66497	1187455.812101700418	8
0	66533	1187830.60127849508	7
0	66539	1187849.538973601353	8
0	66548	1187971.256176138255	7
0	66569	1188114.49469086304	8
0	66573	1188146.914005104896	7
0	66618	1188353.266581846483	6
0	66636	1188434.828384925218	5
0	66735	1189210.623594473814	4
0	66834	1190614.502132905299	3
0	66884	1190883.477321877054	4
0	66885	1190890.625374093912	3
0	66914	1191023.878741434895	4
0	66925	1191231.370054427549	3
0	66938	1191407.069221144331	4
0	66949	1191619.748152142097	3
0	66982	1192274.570266505787	4
0	66998	1192713.255687634491	3
0	67068	1193257.08907770947	2
0	67080	1193288.891857642356	3
0	67116	1193893.415554895606	4
0	67122	1193942.957120986998	3
0	67183	1194703.220901219691	4
0	67214	1195333.260656294473	5
0	67215	1196080.672863936335	4
0	67233	1196435.867156169623	3
0	67236	1196435.965021892244	2
0	67268	1196670.960633385346	1
0	67354	1197878.097119165594	2
0	67367	1197955.944505864511	3
0	67430	1198770.944475407507	2
0	67460	1199129.834582724237	3
0	67467	1199188.454077626215	4
0	67469	1199190.012711060894	5
0	67476	1199668.062468887856	6
0	67507	1200226.41818362618	7
0	67508	1200419.613084613089	6
0	67519	1200615.299425898691	7
0	67538	1201118.509782572776	6
0	67591	1202083.87128407426	5
0	67607	1202236.664031748044	6
0	67608	1202316.06112513299	5
0	67658	1202847.027399515925	4
0	67700	1203143.036506385264	5
0	67719	1203297.81780496828	6
0	67727	1203433.62473765795	5
0	67757	1203727.542585583035	4
0	67787	1204191.723682706264	3
0	67824	1204526.159113057435	4
0	67844	1204690.798455307572	5
0	67845	1204857.728354013825	4
0	67883	1205664.03705779661	3
0	67966	1207248.642632482002	2
0	67979	1207340.845831165795	3
0	67985	1207392.613271366449	2
0	68033	1208306.541545055592	1
0	68039	1208501.992434230536	0
0	68283	1213146.481384305071	1
0	68284	1213805.940119023353	0
0	68298	1214050.795057085335	1
0	68319	1215133.900798648802	0
0	68328	1215179.296924361907	1
0	68371	1215852.815351495576	0
0	68397	1216058.521146898921	1
0	68428	1216651.981839369197	0
0	68485	1218275.565496968108	1
0	68486	1218982.376648612756	0
0	68648	1220458.30919781542	1
0	68668	1220789.495671948973	0
0	68746	1221501.779577350775	1
0	68748	1221518.530446228071	2
0	68758	1221728.327129450703	1
0	68764	1221955.089662575938	0
0	68942	1224596.721406486626	1
0	68953	1224757.421594310793	0
0	68969	1224928.849435022019	1
0	68993	1225141.054797181981	0
0	69152	1227809.163149497374	1
0	69156	1230355.43256189253	2
0	69160	1231635.488151868361	3
0	69164	1231689.385427448977	4
0	69165	1231746.986596873089	3
0	69179	1232040.237872866331	4
0	69195	1232570.676529330962	3
0	69206	1232674.324341691759	4
0	69247	1233069.779194943712	5
0	69266	1233688.309654851355	6
0	69267	1233708.48975985699	5
0	69298	1233982.788520521692	4
0	69341	1234486.995334654344	3
0	69355	1234520.187202430053	2
0	69414	1235151.586055439537	1
0	69430	1235254.057213587891	2
0	69443	1235447.89522986663	1
0	69477	1235782.160914937839	0
0	69612	1237208.05452393793	1
0	69613	1237246.300070201428	0
0	69812	1240639.711739028507	1
0	69819	1241541.653367722914	0
0	70183	1247553.581432188882	1
0	70185	1247572.415517655563	2
0	70186	1247771.949075713586	1
0	70189	1247772.329101887787	0
0	70399	1250479.979667469428	1
0	70417	1250693.216026328071	0
0	70599	1252717.828276807098	1
0	70610	1253337.786166693409	0
0	71193	1264297.62140363853	1
0	71212	1264741.944167552029	2
0	71213	1265003.992383395698	1
0	71232	1265199.981680049708	2
0	71238	1265298.911092751732	1
0	71266	1265636.277658520936	0
0	71309	1266028.748367265925	1
0	71336	1266318.69660555881	0
0	71554	1269378.377285962042	1
0	71580	1270189.547388862828	0
0	71634	1270582.044734865815	1
0	71642	1271152.18727887548	2
0	71646	1271300.396145148606	3
0	71650	1271352.938708496317	4
0	71687	1271774.565412708718	5
0	71700	1271909.286506271794	4
0	71761	1273442.816372047444	3
0	71764	1273447.272962752978	2
0	71817	1274094.483816951654	3
0	71821	1274357.875036356177	4
0	71828	1274589.919189205119	3
0	71866	1274896.755717886392	2
0	71886	1274994.39384152863	1
0	71909	1275224.773087864356	0
0	71929	1275300.087981362921	1
0	71936	1275348.745686816143	0
0	72149	1279774.60790465724	1
0	72183	1280002.814681970683	2
0	72239	1280697.874167933296	3
0	72248	1281057.1661490046	4
0	72252	1281124.902957607389	5
0	72253	1281379.737708230927	4
0	72279	1282198.488759246848	3
0	72325	1282799.826613547839	2
0	72395	1283964.496938987241	1
0	72409	1284110.930249569591	2
0	72412	1284138.375827305975	1
0	72453	1284335.952881957703	0
0	72488	1284544.249402634173	1
0	72513	1284838.970561163076	0
0	72563	1285647.401391594638	1
0	72572	1285719.771848260621	0
0	72610	1286001.680571038809	1
0	72644	1286430.899840858983	0
0	72920	1292024.723522953153	1
0	72921	1292118.350258207042	0
0	72940	1292371.687162272202	1
0	72948	1292610.342468579008	0
0	73207	1296713.171161466324	1
0	73208	1296839.504794295545	0
0	73217	1296898.42131335482	1
0	73288	1298038.439262911769	0
0	73549	1302652.672733984066	1
0	73561	1302762.554634398783	2
0	73573	1303059.893016755843	3
0	73586	1303402.140734132549	4
0	73595	1303588.547635732005	3
0	73598	1303602.707219149135	2
0	73709	1305271.645421930602	3
0	73730	1305698.468315672658	4
0	73734	1306055.847166153274	5
0	73735	1306328.178974964598	4
0	73771	1306773.116287131125	3
0	73821	1307749.277110470797	2
0	73862	1308090.108704717335	3
0	73868	1308361.336357091994	2
0	73894	1308889.132150188418	1
0	73920	1309248.930815534816	0
0	73971	1309551.649905561864	1
0	73978	1309838.525568274148	0
0	74091	1311786.232400984836	1
0	74094	1311977.92262826603	0
0	74098	1311999.321218864184	1
0	74124	1312660.387629882784	2
0	74125	1312751.268704117058	1
0	74141	1313306.364268104554	2
0	74152	1313605.096381369333	1
0	74168	1313701.140927993159	0
0	74236	1316514.560280548051	1
0	74250	1316802.606292838296	0
0	74286	1317172.829039113168	1
0	74320	1317561.453429728056	2
0	74336	1317755.138576602694	1
0	74379	1318155.976991104237	2
0	74403	1318422.728702141546	1
0	74414	1318523.930469526358	0
0	74444	1318901.361734333987	1
0	74465	1319377.968491071748	0
0	74577	1322965.295714512039	1
0	74578	1323577.529407816663	0
0	74745	1327464.452292839558	1
0	74749	1327576.65521707468	0
0	74891	1331019.932234637887	1
0	74892	1331255.920170425031	0
0	74916	1331762.984776351816	1
0	74917	1331829.183651233926	0
0	74931	1332081.919699560598	1
0	74984	1332797.876386799702	0
0	75064	1334293.252674601576	1
0	75065	1334619.118348770616	0
0	75091	1335041.255174477108	1
0	75170	1336003.921652738502	2
0	75177	1336118.104717610353	3
0	75178	1336121.068878468645	2
0	75211	1336817.972959495587	3
0	75215	1336837.441992395241	4
0	75222	1337092.280489679939	5
0	75250	1338689.550948420381	4
0	75258	1338828.440503604525	3
0	75261	1338860.679063204005	2
0	75310	1339299.069824374052	1
0	75320	1339446.814420615508	0
0	75343	1339652.335628752621	1
0	75388	1340041.132821919189	0
0	75476	1341479.453729153324	1
0	75477	1341494.39060171197	0
0	75488	1341634.009334426342	1
0	75506	1341990.071361357977	0
0	75794	1352019.823028632304	1
0	75805	1352398.532563569214	0
0	75834	1352765.648027390574	1
0	75839	1352885.420161032601	0
0	75934	1353719.241630129304	1
0	75964	1353926.432718002337	2
0	75997	1354265.815877083108	3
0	76008	1354391.474072267561	2
0	76027	1354523.135022580562	1
0	76055	1354771.245321726055	2
0	76069	1354890.967753853795	3
0	76073	1354969.61102208226	2
0	76128	1355518.92641940789	1
0	76142	1355595.605398258347	2
0	76159	1355898.528017249271	1
0	76163	1355898.960700602205	2
0	76184	1356287.319899409161	3
0	76192	1356336.182617072421	2
0	76199	1356356.688733062338	3
0	76224	1356672.623031297291	2
0	76264	1357454.590260961793	1
0	76303	1357802.646872328768	0
0	76588	1365484.368034156262	1
0	76599	1365915.48339416263	0
0	76615	1365980.372852909494	1
0	76655	1366445.119994447485	0
0	76672	1366562.651102135977	1
0	76678	1366734.197505219022	0
0	76786	1368055.044764353788	1
0	76787	1368821.211266491544	0
0	76895	1370899.520661454514	1
0	76901	1371451.661759667933	0
0	77242	1377977.645045341813	1
0	77248	1378404.326730463735	2
0	77250	1378406.774840267184	3
0	77251	1378475.843374859394	2
0	77269	1378874.478792890676	1
0	77285	1379054.028818467207	0
0	77343	1379508.326000903546	1
0	77348	1379612.164523750831	0
0	77357	1379714.234274261995	1
0	77389	1380129.17394991833	0
0	77402	1380243.940506490928	1
0	77409	1380290.781502999595	2
0	77421	1380450.658416425759	3
0	77459	1381162.014774834353	2
0	77479	1381512.164106089571	1
0	77495	1381671.013014848992	0
0	77674	1388561.83713776722	1
0	77702	1390340.068026051741	0
0	77715	1390487.075390681455	1
0	77717	1390491.778845728486	2
0	77721	1390570.439065994912	3
0	77728	1390637.493139018176	4
0	77734	1390701.650448434283	3
0	77768	1390959.314593934724	4
0	77779	1391171.427610065213	3
0	77792	1391389.795496112151	2
0	77832	1391672.855383462102	1
0	77874	1391974.904565394986	0
0	78016	1393959.992613175521	1
0	78022	1394098.500660820831	2
0	78024	1394105.121432756019	3
0	78025	1394116.978290160477	2
0	78031	1394144.813003230141	1
0	78066	1394535.873979007143	0
0	78197	1395163.021426768607	1
0	78213	1395275.996211671345	0
0	78274	1395909.602437735828	1
0	78275	1395916.259583670597	0
0	78289	1396148.964397687294	1
0	78295	1396171.622467248189	2
0	78314	1396537.178423516528	3
0	78348	1396969.371092423009	4
0	78372	1397269.670389040549	5
0	78375	1397497.096585879803	4
0	78381	1397547.712828452044	3
0	78399	1397737.281297643064	4
0	78415	1397924.054079190728	3
0	78489	1398390.211363891601	2
0	78535	1398557.571354919001	3
0	78570	1398926.355712983188	2
0	78624	1399481.150336150867	3
0	78625	1399692.504276173398	2
0	78678	1400615.611746833912	1
0	78689	1400762.655622560437	2
0	78708	1400948.850924710405	3
0	78709	1400975.139958775214	2
0	78727	1401193.684042880368	1
0	78751	1401424.735337324123	2
0	78754	1401504.374513045803	1
0	78781	1401913.996578072465	0
0	78810	1402426.103778893071	1
0	78827	1402608.427610034255	0
0	78839	1402647.229542030491	1
0	78857	1402711.459427226469	0
0	78878	1402809.798567015813	1
0	78933	1403211.652699508581	0
0	79171	1412894.85188689964	1
0	79172	1412908.488932457705	0
0	79191	1413079.542985727506	1
0	79212	1413412.332750197644	0
0	79232	1413638.340589662202	1
0	79251	1413834.211548500991	0
0	79520	1417036.611459116183	1
0	79559	1417321.996175224075	0
0	79786	1422250.389385825126	1
0	79787	1422866.41997119439	0
0	79838	1423377.243346656723	1
0	79910	1424111.911483642119	0
0	79921	1424138.309236373464	1
0	79923	1424152.581299676054	2
0	79925	1424153.557223727553	3
0	79929	1424176.102774693797	4
0	79993	1424731.004493630215	5
0	79994	1424790.698855545848	4
0	80018	1424900.549364903396	5
0	80036	1425170.397052862478	6
0	80039	1425515.428543106508	5
0	80053	1425687.811376521749	6
0	80065	1425914.339654197804	7
0	80128	1427559.600136242811	8
0	80132	1427911.27595417755	9
0	80133	1427975.877763201643	8
0	80144	1428405.860598292924	7
0	80187	1429216.625379969775	8
0	80188	1429369.755968028329	7
0	80204	1429930.837999158201	6
0	80213	1429966.771374156982	7
0	80268	1430392.878746067051	6
0	80291	1430842.996719108729	5
0	80294	1430892.539581990166	4
0	80300	1430947.084530492786	3
0	80353	1431251.551271525662	2
0	80455	1431975.750401685673	3
0	80469	1432184.212069192179	4
0	80532	1433041.321240150418	3
0	80546	1433217.660400380712	4
0	80560	1433351.367151742699	5
0	80576	1433619.435339779126	4
0	80590	1433824.53515777376	5
0	80603	1434036.654774521162	4
0	80634	1434231.942873319149	3
0	80660	1434348.974860047809	2
0	80663	1434362.044935565618	1
0	80689	1434464.678943649418	2
0	80739	1435155.466220382296	1
0	80743	1435172.100081802868	2
0	80765	1435848.264551287817	1
0	80795	1436028.197528630254	0
0	80860	1436530.915858623924	1
0	80869	1436693.873539056279	0
0	80917	1437110.358179631328	1
0	80938	1437802.134007820524	0
0	80971	1438134.558003234233	1
0	80997	1438545.679323185348	0
0	81001	1438593.85266499452	1
0	81010	1438696.685323547093	0
0	81279	1442335.462384537531	1
0	81295	1442640.335393388572	0
0	81303	1442674.305169897804	1
0	81325	1442858.881827172206	0
0	81588	1448442.893931957752	1
0	81619	1449968.066438075083	2
0	81623	1450184.56284219558	3
0	81624	1450372.2190518637	2
0	81653	1450705.553834320012	3
0	81654	1450836.939420399337	2
0	81672	1451133.486449843316	1
0	81731	1451560.241271487617	0
0	81752	1451689.680769197918	1
0	81758	1451709.220786315691	2
0	81762	1451727.061296655602	3
0	81792	1452336.974748363376	2
0	81834	1452704.826266647947	3
0	81892	1453495.250979464945	4
0	81913	1454720.275605304477	3
0	81916	1454747.834465799745	2
0	81922	1454755.633339578578	1
0	81958	1455058.148955929114	2
0	81964	1455122.3455838595	1
0	81987	1455310.715442142143	2
0	82007	1455683.617877668399	3
0	82009	1455715.162044720809	4
0	82013	1456478.159519174867	5
0	82016	1456652.627198248947	4
0	82025	1456684.368739956194	5
0	82026	1456716.838459123623	4
0	82032	1456753.936817873338	5
0	82036	1456896.704287154376	6
0	82073	1457294.523947908976	7
0	82094	1457422.39304779126	6
0	82144	1458356.486211035619	5
0	82174	1458580.678299914593	6
0	82179	1458619.511738467268	7
0	82253	1460059.773742807802	8
0	82268	1460471.217385966446	7
0	82279	1460513.282003771092	8
0	82291	1460634.806812212964	9
0	82327	1461195.507149051466	8
0	82368	1461725.796026048526	9
0	82369	1461735.584238883677	8
0	82417	1462388.271688019579	7
0	82438	1462613.27005366923	6
0	82452	1462707.699263227949	5
0	82570	1463912.613292817352	6
0	82583	1464178.295743510882	5
0	82604	1464376.090615672321	6
0	82610	1464397.744163405183	5
0	82628	1464661.7521407795	4
0	82639	1464735.074191210658	3
0	82658	1464938.367075217821	2
0	82682	1465084.907832994049	3
0	82696	1465173.382483353993	2
0	82737	1465639.007569212555	1
0	82759	1465888.252284513986	0
0	82911	1468825.392109379675	1
0	82912	1469700.083029109244	0
0	83511	1481611.579653043933	1
0	83512	1481992.995731094296	0
0	83533	1482381.826710060676	1
0	83587	1483994.260262153152	2
0	83590	1484010.977321615361	1
0	83601	1484069.636157532314	2
0	83620	1484533.914854258217	1
0	83636	1484637.983128811106	0
0	83927	1490975.084473085354	1
0	83933	1491123.953501461948	0
0	83949	1491303.341835669212	1
0	83953	1491366.858588224523	0
0	84136	1494271.706212802279	1
0	84156	1494388.940035685844	2
0	84164	1494440.951152377471	1
0	84170	1494496.41769135456	2
0	84196	1494679.708941385709	1
0	84235	1494978.647503873885	0
0	84481	1499442.113993840485	1
0	84485	1499506.004247923088	2
0	84486	1499527.771260771265	1
0	84501	1499712.34809388458	0
0	84565	1500189.060130337868	1
0	84574	1500333.121335375107	2
0	84598	1500621.041811542057	3
0	84621	1501275.809215185403	2
0	84640	1501430.649265521666	3
0	84658	1501636.632189991629	2
0	84689	1502204.34598868596	1
0	84741	1503016.48717563004	0
0	84750	1503122.609487385132	1
0	84759	1503366.151076274025	0
0	84937	1507946.531222885361	1
0	84943	1508163.247576021598	2
0	84945	1508169.180194561802	3
0	84946	1508497.687353571036	2
0	84964	1508919.082580724947	1
0	84968	1508943.038058521462	2
0	85001	1509703.946848621255	1
0	85010	1509918.822726489114	2
0	85047	1510634.17419085032	3
0	85068	1510818.279092898456	2
0	85073	1510840.285436142989	1
0	85171	1511650.345126877316	2
0	85175	1511827.737453607643	3
0	85179	1512006.06706738626	4
0	85198	1512397.83793879655	5
0	85225	1512700.91262802536	6
0	85227	1512716.04545502825	7
0	85242	1512927.982706858617	6
0	85258	1513055.792591497385	7
0	85304	1514409.304922933632	6
0	85330	1516436.312455863176	5
0	85333	1516525.214403528656	4
0	85357	1516665.13465417579	3
0	85436	1517399.108636839327	4
0	85445	1517610.269648703906	3
0	85463	1517773.143975658399	2
0	85506	1517991.56174023652	1
0	85529	1518064.434095545996	0
0	85563	1518190.001947256777	1
0	85613	1519022.563240383963	2
0	85627	1519429.791446140673	3
0	85628	1519460.737711946392	2
0	85682	1520029.263282197348	3
0	85714	1520423.333847446071	4
0	85732	1520777.03091851301	3
0	85802	1522380.24336015704	2
0	85823	1522961.081277698824	1
0	85844	1523288.109444529196	2
0	85864	1523525.204631319275	1
0	85871	1523570.865960289933	2
0	85880	1523703.560230289673	1
0	85888	1523747.571380770525	0
0	85995	1524290.349483647368	1
0	86001	1524784.896295449916	2
0	86003	1524786.697183806836	3
0	86059	1526086.795688686933	2
0	86072	1526239.623846274293	1
0	86108	1526999.024011137218	0
0	86153	1527545.214085099658	1
0	86171	1527960.187930975149	2
0	86172	1527966.167352659232	1
0	86196	1528371.454540142874	0
0	86537	1535306.681955779326	1
0	86541	1535357.536403313195	2
0	86554	1535531.492115549503	1
0	86560	1535659.23811828748	0
0	86566	1535708.638657221369	1
0	86598	1535899.548674125843	2
0	86618	1536093.9294771177	1
0	86679	1536605.160233441729	0
0	86832	1537710.807904844265	1
0	86845	1537871.837866802468	0
0	86881	1538476.206836592679	1
0	86883	1538491.897984061015	2
0	86884	1538751.381980783854	1
0	86905	1539190.733603371935	0
0	87021	1542863.643644809854	1
0	87025	1543125.707667899023	2
0	87026	1543609.552116392867	1
0	87044	1543951.047951414018	0
0	87073	1544410.197354155936	1
0	87094	1544729.657247243882	0
0	87166	1546021.839334173388	1
0	87197	1546683.089481703395	0
0	87246	1547246.580280777214	1
0	87247	1547253.189434671796	0
0	87506	1553651.615485880211	1
0	87507	1553858.758524402777	0
0	87677	1557468.104517086354	1
0	87678	1557737.010208516534	0
0	88078	1568693.818055628897	1
0	88079	1568730.632826401644	0
0	88135	1569305.327521502933	1
0	88139	1569404.590497270269	2
0	88142	1569588.197481221952	1
0	88146	1569602.806473276594	2
0	88175	1571020.831780088775	1
0	88203	1571210.917278300213	2
0	88222	1571435.66660170163	1
0	88251	1572174.369806113036	0
0	88368	1572843.696800200234	1
0	88382	1573010.714887614772	0
0	88646	1576595.513432464461	1
0	88650	1576800.486877938884	0
0	88656	1576881.012848947435	1
0	88657	1577045.515014435349	0
0	88887	1581015.863820328092	1
0	88891	1582284.108513444957	2
0	88892	1582296.889738504267	1
0	88918	1582896.890198635696	0
0	89024	1583808.210646031721	1
0	89032	1584186.132538300101	0
0	89311	1591063.908539047341	1
0	89327	1591489.835222326167	2
0	89338	1591683.925801074839	1
0	89344	1591694.027151499004	2
0	89358	1591841.624632019071	1
0	89376	1592026.270314727447	0
0	89407	1592280.953255926878	1
0	89422	1592365.921548499197	2
0	89445	1592750.643266296567	3
0	89463	1593285.302827446512	2
0	89481	1593497.140800854635	1
0	89498	1593643.801285470195	2
0	89515	1593800.818106375412	1
0	89525	1593892.275779025978	0
0	89774	1596936.214518245048	1
0	89781	1597078.6361763434	2
0	89807	1597369.461443224847	1
0	89818	1597488.448414335363	0
0	89940	1599079.907654348143	1
0	89951	1599424.194952656727	0
0	90086	1602331.409841207022	1
0	90087	1602725.053149737766	0
0	90145	1603830.400762620346	1
0	90146	1604013.435165671009	0
0	90189	1604642.809097353886	1
0	90194	1604652.036529721303	2
0	90195	1604670.163410549778	1
0	90226	1605096.862601559081	2
0	90229	1605230.501964799436	1
0	90249	1605449.867475383818	0
0	90474	1607834.298108313956	1
0	90475	1607893.497529754072	0
0	90737	1617403.816746355611	1
0	90745	1617756.284932559799	0
0	90780	1618243.322499726391	1
0	90781	1618278.010076861446	0
0	90793	1618311.455339404044	1
0	90813	1618415.227063638323	2
0	90862	1619047.830889294018	1
0	90876	1619095.418543156335	2
0	90892	1619655.562613349624	1
0	90923	1620071.531074517813	0
0	91155	1622747.628130727364	1
0	91163	1623627.1633716152	0
0	91333	1627673.675087648707	1
0	91337	1628858.417912884968	2
0	91341	1629063.6497128027	3
0	91345	1629241.743845434398	4
0	91349	1629418.84244749767	5
0	91350	1629439.334090435948	4
0	91368	1629617.647354194347	3
0	91392	1630047.215911311624	4
0	91421	1631105.139120277305	5
0	91430	1631350.303297638128	4
0	91458	1631793.097361656169	3
0	91473	1632032.251832523379	2
0	91508	1632521.304218776138	3
0	91516	1633237.118739653576	2
0	91568	1633744.416681679942	3
0	91581	1633824.936846965731	2
0	91610	1633922.356317327699	3
0	91658	1634207.921587670467	4
0	91662	1634335.583179230099	5
0	91666	1634443.532051469086	6
0	91670	1634677.350436046286	7
0	91674	1634782.676757410395	8
0	91680	1635182.097701881023	7
0	91690	1635318.399529992803	6
0	91717	1635494.296220292893	7
0	91733	1635587.020725644276	8
0	91749	1635865.64579675635	7
0	91762	1636008.615174843009	6
0	91825	1636699.7034781495	7
0	91826	1636727.525524339439	6
0	91868	1637630.203088372376	5
0	91919	1638084.410679646545	6
0	91938	1638239.263157474536	5
0	91941	1638262.621882672601	4
0	92006	1638868.989460187556	5
0	92018	1639125.549345331652	6
0	92051	1639630.260634036417	5
0	92082	1640050.944679585244	4
0	92135	1640687.502918409007	5
0	92174	1641323.399601549832	6
0	92180	1641657.393653766683	5
0	92199	1642190.410806481501	6
0	92238	1642632.932380819117	7
0	92243	1642838.247264353066	6
0	92250	1642848.585011708582	7
0	92293	1644272.740792865009	6
0	92311	1644588.323978094383	5
0	92330	1644806.960243272466	6
0	92349	1645149.963737360078	5
0	92377	1645531.581555547265	6
0	92413	1646097.960023632141	7
0	92414	1646171.414604526681	6
0	92417	1646320.372488905145	5
0	92439	1646484.488524588725	6
0	92527	1647445.452127310203	7
0	92528	1647741.965816156194	6
0	92581	1648387.995613854404	7
0	92586	1648394.326309423986	8
0	92621	1649754.229396964353	9
0	92623	1649821.937227280074	10
0	92627	1650136.559821143537	11
0	92631	1651307.801220729817	12
0	92632	1651390.096719901169	11
0	92651	1651592.406661687533	12
0	92657	1651844.01612639592	11
0	92678	1652638.930282825634	10
0	92693	1652751.215801525091	9
0	92769	1653658.686895875576	10
0	92818	1654525.607324617794	11
0	92856	1656274.38682279729	10
0	92877	1656831.045136952311	9
0	92910	1657167.488677110667	10
0	92911	1657176.012107516681	9
0	92927	1657364.351652483004	8
0	92935	1657517.086436546466	7
0	92965	1657740.287208850332	6
0	93005	1658122.58202768448	5
0	93029	1658319.796608249691	4
0	93061	1658843.048012595157	3
0	93093	1659125.922196316987	2
0	93128	1659527.952035280675	3
0	93137	1659692.339603879631	4
0	93140	1659755.242903720813	3
0	93149	1659842.211162910918	4
0	93192	1660556.224570290274	5
0	93203	1660706.340813299501	4
0	93221	1660908.260824061898	3
0	93230	1660951.108429337035	2
0	93287	1661380.882661046658	1
0	93333	1661683.992906163936	2
0	93343	1661773.39815520872	1
0	93350	1661778.106220426558	2
0	93368	1661953.419712538672	1
0	93449	1662602.021040060353	0
0	93734	1666594.886425981394	1
0	93735	1666743.585533784146	0
0	93811	1667492.123629356648	1
0	93824	1667815.483860796856	2
0	93862	1668670.673090077652	1
0	93879	1668739.303519848978	2
0	93885	1668812.829538366692	1
0	93895	1668835.151192092327	0
0	93927	1669054.275413030883	1
0	93956	1669302.689422997421	2
0	93957	1669357.777345360033	1
0	93985	1669478.133186165827	2
0	94039	1670295.251070310869	3
0	94084	1671040.642714079161	2
0	94103	1671295.2541683894	3
0	94122	1671929.864898128405	4
0	94135	1672118.125534637884	3
0	94161	1672422.830919434912	2
0	94176	1672520.983409411448	1
0	94220	1672900.695760759332	2
0	94228	1673205.908323503954	3
0	94232	1673326.239886791174	4
0	94233	1673556.144592575351	3
0	94244	1673643.079956166175	2
0	94273	1673809.141066118769	3
0	94279	1673904.543046904827	2
0	94369	1675065.827308714756	3
0	94395	1675465.82324467071	2
0	94416	1675756.199302519891	1
0	94493	1677428.046534455345	0
0	94536	1677894.914345740046	1
0	94564	1678637.738973828149	0
0	94592	1679181.451500247601	1
0	94593	1679335.412294178032	0
0	95046	1691429.665050169444	1
0	95047	1691644.291400724863	0
0	95331	1699184.977258082501	1
0	95332	1699443.508840611424	0
0	95447	1702278.791561286465	1
[...]
11	479397	8499150.827021289425	5612.6262524335
11	479412	8499286.454495422358	3973.9009604446
11	479434	8499631.739312241453	2553.8573727844
11	479486	8500726.64789307197	3106.0870283102
11	479598	8502152.766866458017	1342.0017177554
11	479720	8503844.238483637001	2402.3455352626
11	479725	8503989.307524801686	2494.1116845854
11	479836	8506634.08634354689	4986.4640522876
11	479898	8507977.341154686764	5355.3344476807
11	479945	8508618.063898129854	2809.9732215772
11	479972	8509362.16054077373	2516.7907383336
11	480046	8511058.575134175394	1369.9296425792
11	480192	8512625.715681199333	2857.6118830415
11	480205	8512736.460918058146	2850.4070286489
11	480230	8513075.294614820502	2870.1798757214
11	480286	8514932.099912723941	4345.3076505912
11	480368	8515773.25967221352	2466.2724681645
11	480371	8515813.220331519914	1148.1628192594
11	480458	8519117.753162655009	2762.6707711612
11	480551	8522010.954534067705	5946.7987968028
11	480628	8523148.53998222581	3420.9619355718
11	480655	8523379.582350872017	1488.8739788674
11	480873	8526866.543516226309	3986.0590041051
11	480891	8527057.60792399825	3886.1317015657
11	480943	8527472.28300293566	2676.67097637
11	481030	8528254.76949547042	2457.5775550115
11	481046	8528618.651116735323	3643.4338162062
11	481058	8528993.294036075483	2913.399125217
11	481085	8530341.820640874039	3937.2817400724
11	481153	8534125.711277084631	1727.7986418382
11	481323	8537249.512704634673	4015.1776087677
11	481399	8538273.120229091414	4580.3553615165
11	481409	8538339.873079497937	1216.6942447007
11	481549	8541426.212534081503	3990.0000315745
11	481566	8541754.56896865009	3384.6122486019
11	481571	8541787.331992038895	3771.9545445848
11	481653	8544984.350799805813	2980.8698856984
11	481791	8546750.701425017282	2978.3049026958
11	481794	8546791.491379873912	2362.5181561803
11	481883	8549431.981436731389	4011.006677178
11	481951	8550893.262808438045	5151.2990560415
11	482019	8551965.056136819375	3613.771861732
11	482029	8552112.67592842033	4042.3359142794
11	482061	8553345.004590371567	2724.6398545513
11	482130	8554957.355123104424	2163.8724622766
11	482222	8556196.727752997868	1650.5644313779
11	482244	8556598.656936392138	1747.0582812128
11	482284	8558276.857117341369	3200.5929718016
11	482376	8560958.494687264578	1931.244762156
11	482469	8562979.997921697884	3759.4134891023
11	482586	8564047.245455658985	2723.4690713045
11	482592	8564162.186846013448	4791.3017419387
11	482637	8564648.507185138346	3242.7127211247
11	482691	8565602.154031456842	3496.829904314
11	482734	8566162.080569559655	2912.9700279074
11	482804	8567140.679403553545	3407.079711699
11	482994	8569040.801347025507	5180.0917792675
11	483032	8569234.297562525502	5339.9994751754
11	483155	8570860.06801498243	3059.7746849604
11	483172	8571294.305634401333	4892.31093626
11	483208	8572026.462494927118	1941.4707031341
11	483344	8574681.574310758281	2832.1873530703
11	483430	8576474.385598188244	4501.1458669376
11	483485	8577417.6498068856	1639.6548753602
11	483538	8577809.658121740983	4088.9922288593
11	483566	8578126.599113180621	2360.8982435529
11	483698	8579698.749080211915	3868.7073577335
11	483825	8582100.972124820569	4316.2803032252
11	483899	8582883.173901515719	4640.7709346456
11	483904	8582936.467039822055	3607.091019715
11	483931	8583899.734499583561	3683.9574085241
11	484050	8585373.022645663232	4854.1826750105
11	484101	8585729.241950001459	4342.4313620458
11	484130	8586058.794098005095	4293.4969113194
11	484177	8586738.51474900407	3896.0448020627
11	484299	8588039.806695476923	3411.2095024657
11	484307	8588072.310939387108	3320.1775286116
11	484418	8589744.375794388663	4841.6701782123
11	484464	8590159.85543379193	3716.7218340989
11	484490	8590451.111412372653	2959.4275720085
11	484582	8592449.402571632547	4213.5343184238
11	484599	8592815.440403292921	2491.492727218
11	484658	8595737.713064510466	1883.5419844967
11	484777	8598379.515353391243	2415.5244815436
11	484883	8600212.480656546649	3053.0487531042
11	484901	8600627.241995040336	4913.4201515528
11	484964	8602468.196653983717	5029.0728515369
11	484994	8603104.533733740828	4718.121709185
11	485084	8604255.283434666207	2398.0192525853
11	485143	8605384.531764224956	3205.0093843811
11	485161	8605818.507430016268	3401.8193066431
11	485259	8607672.793966019855	4134.2734395165
11	485284	8608209.096085802945	3157.6903152693
11	485423	8614904.430405090597	2534.8160151981
11	485442	8615088.867200981035	1492.8147125259
11	485472	8615663.730526564053	1611.922738693
11	485581	8617486.506661860848	3101.3377137229
11	485586	8617524.855881782433	2565.9953812827
11	485780	8619722.794221283655	3487.0542112607
11	485810	8619879.882239284684	4402.4013937728
11	485853	8620219.145686345032	2216.0591138363
11	485870	8620289.417329598472	3099.5789570914
11	485998	8621613.278945378088	3460.5699013513
11	486005	8621715.246733053042	3734.5356892344
11	486040	8622875.012065405691	4062.4564460985
11	486176	8626155.615770731467	5754.5958555566
11	486338	8628957.641627727527	8435.7055411389
11	486348	8629124.237076541829	7737.4397042263
11	486387	8629803.306606951832	3350.5500779049
11	486482	8630735.310626292377	1143.1508645261
11	486524	8631618.599263630385	3696.1740875754
11	486548	8632119.06399663493	1992.1399051678
11	486650	8634153.387013387454	2404.194972801
11	486685	8634539.054388056605	2471.3342242602
11	486717	8635510.902448421188	1716.3395062697
11	486895	8638261.697236601292	2783.0682904006
11	486919	8638543.609036620006	1915.0421172406
11	486928	8638669.198969962812	2750.0670204223
11	486945	8639098.636623946328	2469.1989439413
11	487014	8640416.369162707132	1873.4544992565
11	487054	8641416.119467175026	1326.4625533699
11	487150	8644778.849370401281	3129.4955654271
11	487205	8645604.356340490095	2407.1899776384
11	487276	8646762.593495465899	2424.1290067983
11	487315	8647215.951754178344	2758.6386499008
11	487369	8647977.871094430038	2225.2230546661
11	487473	8649722.506662378607	3525.0238999068
11	487523	8651004.60369292863	4578.9511909044
11	487572	8651914.59673660986	4984.1947155043
11	487699	8653955.680549835473	6572.15782484
11	487727	8654426.843062529113	6448.2609917363
11	487829	8655405.791888575675	6488.9714747746
11	487898	8657476.129966683263	8463.4683319909
11	487935	8658473.975452006138	8847.1909224491
11	488075	8659972.779253394834	6504.3088600613
11	488123	8660252.899673938087	7180.4305888975
11	488156	8660639.690213357439	6697.0361617644
11	488185	8661338.272646944734	7390.5075247735
11	488250	8663233.970891096028	7905.9723345198
11	488406	8665430.71300881089	8844.8139006563
11	488490	8665805.664030276654	9309.3278415809
11	488520	8666359.923443064715	8945.0905301345
11	488607	8667343.346668737775	9597.1590016636
11	488627	8667638.971193522267	9559.4402822932
11	488637	8667996.237790490527	9522.1721645556
11	488728	8669041.094775775835	8633.2492512593
11	488770	8669562.311388758191	8863.291677362
11	488885	8672215.80887182826	8520.3473349852
11	488934	8672992.132869636745	9582.1153589479
11	489012	8674100.982852989344	8168.1853876285
11	489130	8675452.028412054642	8970.8327431079
11	489133	8675468.631225472756	9504.1530141219
11	489177	8676439.717011532984	9085.3175922496
11	489212	8677856.879996782964	10572.951546534
11	489269	8679491.210704842984	10857.473657439
11	489377	8680781.214742925827	12030.220047523
11	489405	8680982.106087942612	11690.832284356
11	489516	8682102.00355652304	12478.207990768
11	489526	8682165.51381622724	12563.578198843
11	489586	8682684.364604406174	12598.717866277
11	489697	8684093.466293743936	12992.593138374
11	489794	8685352.022765568804	9252.4086724941
11	489809	8685766.741597994492	9315.6785034352
11	489860	8686323.720345154786	7113.0453834167
11	489919	8687242.228180351381	7509.0558604904
11	489969	8688208.49778131895	7275.3029921815
11	490090	8689228.607692279324	7575.4760535399
11	490122	8689441.99282089246	7530.2522704387
11	490255	8690712.974421706115	8363.8707743175
11	490313	8691050.624776826727	8160.9606968275
11	490323	8691238.792206129084	6825.055549448
11	490444	8692761.333622609396	8433.524587336
11	490485	8693346.600735572383	8874.5299660742
11	490514	8694011.742769512509	5685.0480286323
11	490551	8694682.927096505019	3194.7108438601
11	490581	8695326.477303544238	3500.0805399578
11	490623	8696820.879667175312	2370.753643303
11	490680	8698996.562351158689	1551.1164806425
11	490754	8701598.640089737306	2068.1767793171
11	490815	8702856.730356484662	3043.0904616487
11	490899	8704748.351851925869	4620.2256959107
11	490967	8705968.345151448981	5590.6131361041
11	491005	8707253.266932380786	6124.131472982
11	491103	8708340.890412402461	6355.5887773741
11	491144	8708653.084433017498	6889.8883716756
11	491236	8709899.581645386833	6967.9253546061
11	491343	8710627.457892605403	7126.3969030074
11	491395	8711303.398015115461	7846.9136796452
11	491402	8711509.033670220595	7077.7111599916
11	491512	8713137.838728569008	6189.007977946
11	491593	8713794.459427578565	6342.7330488456
11	491607	8713946.082736924695	5658.371020995
11	491632	8714227.16579197404	6210.2594285421
11	491818	8715703.45476621489	7125.3178049384
11	491853	8715916.389618780467	7341.0247339554
11	491935	8716608.714911712616	2957.4733742026
11	491952	8716814.52536198232	3365.2969958234
11	492032	8717862.149526560469	3817.1879705832
11	492037	8717909.015719879402	3631.4120588419
11	492073	8718630.536086674235	1669.0766788074
11	492197	8721420.998754229839	3053.361446836
11	492234	8722016.509555890552	3533.65605222
11	492376	8723632.615680735809	2831.0214710367
11	492445	8724462.689056790841	3085.108833764
11	492522	8724922.108679324725	4039.2521315489
11	492636	8727372.184920779474	5715.9936351791
11	492661	8728069.60348052417	5657.8478240102
11	492793	8730495.848054741125	3114.2700250125
11	492833	8730802.538075572467	2682.459590162
11	492876	8731510.978654539172	3201.3586492038
11	492946	8732272.396379476498	3748.7353129493
11	493008	8732859.44784465797	3747.2989455681
11	493118	8733921.434497308276	4746.8712631846
11	493123	8733953.760480897	4132.2089859882
11	493170	8735827.019345151915	3092.4486237084
11	493233	8737022.273960788507	3942.6434116467
11	493312	8738521.283338852077	5464.7365785817
11	493347	8739625.694283666001	4907.5051715808
11	493542	8741873.553907781567	6897.380281908
11	493585	8742350.181436438818	7576.9756146855
11	493653	8743275.860436674569	4791.908987915
11	493714	8743793.498211604975	7030.146698812
11	493729	8743949.817747494021	2972.5898600672
11	493879	8746051.041390088468	5008.9899852925
11	493899	8746150.464188803551	4905.0364853659
11	493906	8746251.395814790777	4982.6929999425
11	493938	8746975.539479781979	5649.8890703723
11	494001	8748171.741158289709	6316.1788476176
11	494069	8749061.149850382022	5689.558465249
11	494256	8751082.799213371517	7023.2451532606
11	494264	8751105.50854014545	7464.7823195081
11	494290	8751348.796611343499	4426.7948369693
11	494325	8752056.158854223109	2922.6628155314
11	494402	8753213.685839925867	3405.2878595928
11	494456	8754034.214879636475	4121.2913658302
11	494459	8754042.909584763017	3725.9310397484
11	494579	8756006.957038592346	2098.4536125056
11	494607	8757188.958920776324	2698.4554842251
11	494667	8758465.092195388315	3997.1393795975
11	494796	8760033.21805935617	1153.3742184399
11	494825	8760190.265555986594	5326.954658522
11	494833	8760248.04621179376	4937.6633331635
11	494900	8760716.554545945326	1513.5936897779
11	494976	8762133.160420006745	2020.9225600989
11	495001	8762549.265156327145	2315.5482148902
11	495078	8763738.236644765016	1301.125344312
11	495127	8765035.274048169315	2160.5461509175
11	495202	8766804.542078247592	2182.9867990206
11	495249	8767462.802064779511	3191.8773992015
11	495298	8768024.658292750498	1560.128603352
11	495378	8770044.693465363484	2367.9360688677
11	495408	8770579.401869068888	2702.6965736138
11	495539	8772606.441686619958	3680.8023420448
11	495556	8772959.413822788971	3010.8332368133
11	495607	8773730.738411510732	3801.9170974928
11	495676	8774979.551979418697	4105.741249533
11	495812	8776297.577816147422	5113.4921006427
11	495842	8776479.930547385556	4242.9727654172
11	495923	8777091.682001287628	4500.825376294
11	495940	8777227.823784931045	3679.146015808
11	495950	8777400.865409746895	1988.9929438534
11	496062	8778842.807968125146	3247.9347612481
11	496090	8779677.13375226777	4156.2944820257
11	496159	8780564.371802505178	3972.1236330631
11	496251	8781976.963087241465	3906.812952763
11	496360	8783229.331686966433	3228.2262213253
11	496365	8783447.774580762806	2314.8629554564
11	496525	8785239.138134924706	2696.2061069888
11	496584	8785647.0483247633	3110.2174933153
11	496596	8785778.929139479818	2796.7530979037
11	496624	8786617.873120887268	1661.7477443061
11	496700	8787776.571944528092	3201.1036400723
11	496747	8788591.418254853072	1468.7781798804
11	496818	8789863.243151642935	3170.8324759044
11	496890	8790446.292650295933	2762.4082332482
11	496984	8791780.947923014718	2781.1976963593
11	497082	8793373.873427100181	5324.0110354885
11	497130	8794179.905531024141	1808.4314427457
11	497142	8794377.510845786183	5143.7437434973
11	497302	8797288.866900632669	3342.8431293034
11	497305	8797297.188597205337	1516.874831257
11	497351	8798359.496704094874	1960.6420341312
11	497407	8799320.455778530821	2798.6228328475
11	497544	8801509.964587869738	4878.6950085816
11	497547	8801522.180584227088	4809.0743656421
11	497604	8802108.513581617337	2747.7838650334
11	497690	8803615.003425136811	4092.1343853463
11	497797	8804513.847372881026	3590.6136576204
11	497806	8804568.673227667834	2514.8308054574
11	497857	8805231.381121689792	1945.4807998306
11	497885	8805748.092351447515	2312.9155306608
11	497934	8806580.566490197306	2437.7353681117
11	497964	8807071.872943809284	1875.9520394352
11	498051	8809553.370971633048	2079.1979856207
11	498129	8810825.307490902545	3066.8304074598
11	498182	8811394.740953837249	1828.8373308178
11	498392	8814685.97716358956	4263.1826961671
11	498407	8814790.604551847975	4834.4510100912
11	498517	8816332.872562694504	3932.7051133066
11	498530	8816521.12028884298	3931.4217923797
11	498575	8817281.983075631363	4515.7092113905
11	498682	8818453.420468646248	3832.8138396399
11	498738	8819459.744395082683	3295.8975469531
11	498773	8821125.067632502128	6276.7853344075
11	498803	8821828.027974730124	4502.3831539316
11	498951	8824522.711327509017	4968.7385821294
11	498971	8824974.408929020083	2867.7984796516
11	498998	8825675.242334951692	1933.0375271188
11	499143	8829153.954055307347	3951.6856327526
11	499163	8829441.05723187292	3488.9168121159
11	499238	8830286.628452693322	2318.7732612857
11	499288	8831277.769472559957	2808.3529968836
11	499431	8832970.379089745788	3952.7665139682
11	499462	8833153.130797495338	4646.6703665632
11	499564	8835209.6550554665	4572.6239705045
11	499571	8835285.617344567679	3856.2137369646
11	499678	8837272.043212438673	5142.936751718
11	499701	8837466.349862178281	3517.6374490455
11	499789	8839773.044523132948	5519.0039095146
11	499799	8840019.997795122223	5364.9619172646
11	499906	8841974.98755008798	5813.3231377531
11	499925	8842442.726079417065	6092.8509110567
11	500098	8845920.175693269796	7999.4696071885
11	500118	8846164.746629340924	8531.6974180417
11	500195	8849082.069132796236	8116.5115273498
11	500307	8851825.912159298357	10303.168168994
11	500387	8852487.841550759352	10452.491007743
11	500425	8852850.102925258154	9879.3358252353
11	500592	8854215.334591465601	7972.6987939804
11	500619	8854459.154982502941	11349.151057399
11	500659	8854973.341960364574	8598.2787777976
11	500675	8855044.401092686158	7347.3881948348
11	500838	8856038.213615510853	7461.6508477117
11	500872	8856302.901540016642	7003.6796691973
11	500910	8856633.563411136296	3832.7530808722
11	501003	8857360.904481551667	5455.9416569884
11	501018	8857415.919675001883	2124.0242085614
11	501095	8858589.372962868134	2131.7356585696
11	501123	8859979.043823088418	3336.5438402087
11	501150	8860646.116500383999	3842.8827060974
11	501327	8867514.158733462586	4070.8344392379
11	501398	8868949.982579725818	2642.9525378243
11	501408	8869167.929845461579	5241.058554545
11	501467	8873154.708646667055	3967.1278546044
11	501610	8875719.191199008875	2635.6816552478
11	501638	8876574.796440336396	2033.4879251911
11	501766	8880183.103272502323	5361.1555268157
11	501818	8880788.43148914043	3522.9114014024
11	501848	8881157.627715036218	2804.0984266743
11	501865	8881668.049203227102	1739.7675963859
11	502047	8884241.900566818582	2397.322322427
11	502059	8884458.240974756297	2582.1777373154
11	502115	8884999.99744083271	2738.1443827062
11	502219	8886237.436554110736	3934.3628192866
11	502261	8887072.942417458619	3756.104896081
11	502322	8887917.833008559432	2818.5835857061
11	502398	8888768.81117861375	3282.8488242873
11	502469	8889312.80723500057	2857.5238342713
11	502508	8889820.869196444949	3796.5465941753
11	502630	8890902.836056174973	4051.3878740283
11	502689	8892102.823105929787	4118.881628507
11	502699	8892318.056058059361	4496.6870148149
11	502776	8893891.891447798328	2289.2523905233
11	502865	8896111.001529332465	2963.4667961488
11	502965	8897674.79203398501	2643.1292480503
11	503073	8899869.985003327163	4695.2735856712
11	503101	8900140.311838151451	3872.5942571358
11	503207	8902070.259598008579	2761.7083084773
11	503312	8904661.512744085471	5007.3259800761
11	503322	8904771.652636962922	4799.9650756616
11	503361	8906469.869513017099	2818.7428551514
11	503519	8907902.252613204082	1650.5880468944
11	503534	8908180.089197352915	1631.0557526191
11	503546	8908432.419624365112	2073.4127994059
11	503637	8911041.699219930468	4284.4317845583
11	503717	8912079.920770242541	4436.2469954804
11	503786	8913308.468100534233	2854.5677262915
11	503818	8913818.835735417171	4137.6785228454
11	503867	8914763.179058918643	4299.3031156852
11	504175	8920856.986022703372	9099.5144807547
11	504237	8921938.039653343074	9379.4989051745
11	504255	8922149.91466465698	4721.1395280054
11	504282	8922600.087620504503	2480.5219442138
11	504369	8925785.445559156523	1768.964241287
11	504411	8926579.95024768645	1816.6500228036
11	504508	8928029.237457278976	1864.0245656185
11	504579	8928728.626683099763	1734.1686351996
11	504642	8929084.015721482032	2808.0491292408
11	504667	8929204.747706337281	1476.6312863679
11	504697	8929886.025605308861	1314.6478627044
11	504795	8931308.165460017977	2380.6954304547
11	504842	8931753.225952356424	2624.9109369003
11	504857	8931897.98943272356	2793.9509600848
11	504922	8933411.158341903642	1777.815973361
11	504983	8936447.99343592225	4466.3098893155
11	505094	8938571.00116868768	5504.3514095571
11	505171	8939256.093817797949	6191.3200293579
11	505195	8939511.787107392615	5302.1981318774
11	505207	8939786.970941877254	5199.4846598695
11	505320	8941096.905642922711	3035.4993058784
11	505347	8941446.874085193992	3217.5489226857
11	505424	8943096.831388037969	3641.2067182745
11	505481	8944691.296746002611	3656.0562517768
11	505484	8944792.198216945288	3650.0020153258
11	505549	8946218.562526601124	2900.0529826867
11	505711	8948574.96881247497	2755.6941358344
11	505750	8948900.829217896465	3375.4370971911
11	505949	8952531.6288813678	5848.7138413305
11	505959	8952675.644695174641	5577.9360588108
11	506036	8956351.956071400719	6310.6518953612
11	506208	8959552.655953937099	8458.2186071056
11	506331	8960264.672728158524	8350.4587472338
11	506334	8960282.327142487423	8132.054925369
11	506367	8960542.084766533341	8712.1613898697
11	506568	8962928.583661009586	10013.147910395
11	506653	8963614.205833783879	8994.642895054
11	506702	8964330.971082087726	6593.6993871429
11	506763	8965481.855729243616	6962.6871164613
11	506794	8966029.33340862951	4942.8418596539
11	506970	8967861.922645602896	5250.8707979484
11	507016	8968164.646420911333	5273.8379794844
11	507047	8968347.496139056813	4976.8350641617
11	507097	8968850.720444629091	3759.3960490921
11	507145	8969839.260144108621	4759.7502440626
11	507190	8970386.880995325583	4452.1540532243
11	507228	8971058.769712532896	3822.4541993825
11	507255	8972204.097295306061	2196.9040616908

