version 2
run General-0-20180514-14:35:17-63224
attr configname General
attr datetime 20180514-14:35:17
attr experiment General
attr inifile omnetpp.ini
attr iterationvars ""
attr iterationvarsf ""
attr measurement ""
attr network Network
attr processid 63224
attr repetition 0
attr replication #0
attr resultdir results
attr runnumber 0
attr seedset 0
param **.clone.changeMsgName false
param **.source.numJobs 4
param **.source.interArrivalTime exponential(840.0s)
param **.queue10.capacity -1
param **.queue9.capacity -1
param **.queue8.capacity -1
param **.queue7.capacity -1
param **.queue6.capacity -1
param **.queue5.capacity -1
param **.queue4.capacity -1
param **.queue3.capacity -1
param **.queue2.capacity -1
param **.queue1.capacity -1
param **.server10.serviceTime exponential(60.0s)
param **.server9.serviceTime exponential(60.0s)
param **.server8.serviceTime exponential(60.0s)
param **.server7.serviceTime exponential(60.0s)
param **.server6.serviceTime exponential(60.0s)
param **.server5.serviceTime exponential(600.0s)
param **.server4.serviceTime exponential(60.0s)
param **.server3.serviceTime exponential(60.0s)
param **.server2.serviceTime exponential(60.0s)
param **.server1.serviceTime exponential(60.0s)
param **.server.serviceTime exponential(600.0s)
param **.delay10.delay exponential(60.0s)
param **.delay9.delay exponential(60.0s)
param **.delay8.delay exponential(60.0s)
param **.delay7.delay exponential(60.0s)
param **.delay6.delay exponential(60.0s)
param **.delay5.delay exponential(60.0s)
param **.delay4.delay exponential(60.0s)
param **.delay3.delay exponential(60.0s)
param **.delay2.delay exponential(60.0s)
param **.delay1.delay exponential(60.0s)
param **.delay.delay exponential(60.0s)

vector 0 Network.queue queueLength:vector ETV
attr interpolationmode sample-hold
attr title "queue length, vector"
vector 1 Network.queue1 queueLength:vector ETV
attr interpolationmode sample-hold
attr title "queue length, vector"
vector 2 Network.queue2 queueLength:vector ETV
attr interpolationmode sample-hold
attr title "queue length, vector"
vector 3 Network.queue3 queueLength:vector ETV
attr interpolationmode sample-hold
attr title "queue length, vector"
vector 4 Network.queue4 queueLength:vector ETV
attr interpolationmode sample-hold
attr title "queue length, vector"
vector 5 Network.queue5 queueLength:vector ETV
attr interpolationmode sample-hold
attr title "queue length, vector"
vector 6 Network.queue6 queueLength:vector ETV
attr interpolationmode sample-hold
attr title "queue length, vector"
vector 7 Network.queue7 queueLength:vector ETV
attr interpolationmode sample-hold
attr title "queue length, vector"
vector 8 Network.queue8 queueLength:vector ETV
attr interpolationmode sample-hold
attr title "queue length, vector"
vector 9 Network.queue9 queueLength:vector ETV
attr interpolationmode sample-hold
attr title "queue length, vector"
vector 10 Network.queue10 queueLength:vector ETV
attr interpolationmode sample-hold
attr title "queue length, vector"
vector 11 Network.sink lifeTime:vector ETV
attr interpolationmode none
attr title "lifetime of arrived jobs, vector"
attr unit s
0	0	0	0
0	9	1540.41803031483	1
0	10	1859.652956562895	0
0	36	2276.891988932327	1
0	43	2397.727477392928	2
0	45	2987.031389084539	1
0	81	3438.635857072224	0
0	240	5548.882792793974	1
0	241	5849.252243887994	0
0	615	11613.280369156451	1
0	636	11815.603039481226	2
0	645	11956.121646260132	3
0	646	13471.064440896438	2
0	672	13852.141070274936	1
0	675	13939.485457343647	0
0	810	15323.275765849152	1
0	834	16279.79260039436	0
0	897	16660.58518856793	1
0	899	16696.943483554161	2
0	930	17521.211441825979	3
0	931	18505.768955536623	2
0	934	18536.778699013902	1
0	975	19257.361242939083	0
0	1209	23878.854004939323	1
0	1213	23944.539387597435	0
0	1323	24707.676638039793	1
0	1324	25259.670106757182	0
0	1380	26795.156234126077	1
0	1381	27220.767947250926	0
0	1494	28753.27885654101	1
0	1495	28988.873544420729	0
0	1644	30095.535514876871	1
0	1665	30221.129960277897	2
0	1671	30276.247374169866	3
0	1672	30508.487974133693	2
0	1690	30876.551427889	1
0	1726	31217.453718134403	0
0	1886	32186.689085084211	1
0	1925	32623.699273934135	2
0	1926	32894.405583100187	1
0	1932	33059.083696302347	0
0	2221	37111.929998373258	1
0	2239	37229.640233036661	2
0	2241	37381.103133865009	3
0	2242	37808.401896397144	2
0	2278	38962.645038798072	1
0	2314	39465.432956807495	2
0	2345	40516.54072609642	1
0	2356	40676.030655509817	0
0	2374	40768.288611249234	1
0	2425	42167.409306118015	0
0	2466	42434.338419835043	1
0	2495	42879.157422818609	2
0	2521	43881.864514807643	1
0	2532	43953.793692542626	2
0	2548	44356.82997156966	1
0	2574	44838.712034722406	0
0	2721	46144.627621851371	1
0	2722	46193.539783178906	0
0	3175	52702.5608819346	1
0	3188	52856.108728094899	0
0	3197	52894.319558786482	1
0	3203	53159.867108344139	0
0	3244	53672.331338090069	1
0	3278	53926.668385843794	0
0	3296	54074.455088709349	1
0	3300	54267.401001715439	0
0	3420	55527.511344568272	1
0	3432	55602.162577478533	2
0	3438	55624.003983571484	3
0	3439	55963.315384054181	2
0	3445	55999.719964159099	1
0	3463	56253.333836999325	0
0	3653	57931.416104904914	1
0	3660	57936.928594971046	2
0	3666	57991.232873634987	3
0	3667	58093.249972189426	2
0	3680	58369.985438753418	1
0	3749	59582.76828669957	2
0	3750	59667.42840438845	1
0	3811	60355.24486503984	2
0	3812	60371.659041113117	1
0	3822	60446.575555816314	0
0	3856	60710.512128517531	1
0	3867	60974.886618801978	0
0	4042	62698.396555141996	1
0	4054	62867.502574130249	2
0	4057	62893.331100407049	1
0	4091	63170.185316367699	2
0	4104	63807.533268611198	1
0	4138	64177.731584176602	2
0	4146	64374.018019851051	1
0	4174	65082.861259005842	0
0	4265	65667.24434563893	1
0	4284	65905.695693394365	2
0	4293	66000.244247385104	3
0	4294	66449.847104690371	2
0	4320	67229.366704149937	1
0	4376	68119.669205630592	2
0	4389	68707.463481655516	1
0	4408	68972.623394979019	0
0	4438	69240.111446848702	1
0	4459	69664.070006605266	0
0	4572	72065.937905577777	1
0	4599	72780.32838383245	0
0	4677	73233.515844082358	1
0	4687	73719.893432991129	0
0	4800	74807.239644211727	1
0	4848	75507.888282435147	0
0	4887	75740.358888567768	1
0	4915	76492.954004252547	0
0	4971	77289.091789120946	1
0	5015	78678.579817064057	0
0	5066	79042.101759873356	1
0	5117	80702.387434088035	2
0	5148	81981.997376626689	3
0	5149	83953.989520572716	2
0	5160	84029.413653831717	1
0	5170	84185.178801638129	0
0	5302	85377.870428351273	1
0	5317	85489.770763007307	2
0	5319	85549.767390443984	3
0	5320	85702.65766561872	2
0	5323	85785.316691744078	1
0	5344	86044.086691033602	0
0	5541	87702.612586371485	1
0	5553	88007.784834502588	0
0	5765	91763.355228385775	1
0	5775	91834.274804268551	0
0	6171	95789.341108715945	1
0	6215	96281.164004087235	0
0	6228	96422.939783635963	1
0	6237	96472.430525106562	2
0	6255	96836.437697842756	1
0	6284	97128.838980359657	0
0	6396	98143.931457063516	1
0	6397	98764.308490371667	0
0	6550	101093.488066809033	1
0	6609	102177.920415708319	2
0	6630	102485.123533624944	3
0	6631	103138.095421683696	2
0	6639	103324.416810286494	1
0	6680	103823.348386962237	0
0	6738	104826.207597517937	1
0	6739	104942.543239691246	0
0	6795	105502.645032844637	1
0	6796	105894.72807605652	0
0	6969	110513.931088423541	1
0	6993	110834.903040022612	0
0	7004	110916.607076767074	1
0	7060	111596.131608849236	2
0	7063	111680.611295339782	1
0	7112	112416.749502027555	2
0	7128	112874.723423707353	1
0	7148	113023.693153710468	0
0	7177	113223.820703462884	1
0	7188	113362.285243163628	0
0	7410	115590.386194235317	1
0	7436	115903.348496443624	0
0	7470	116240.013210916284	1
0	7480	117199.816622710858	0
0	7554	118207.200074239281	1
0	7573	118630.734808659023	0
0	7583	118706.869113489795	1
0	7594	118847.21187623762	0
0	7636	119089.26825958761	1
0	7687	119676.528795440834	0
0	7707	119875.428513093122	1
0	7719	120071.924411299181	0
0	7832	121068.717221680965	1
0	7838	121177.26305534473	0
0	8012	123367.499791071404	1
0	8029	123576.791820573448	0
0	8037	123623.870568733153	1
0	8096	124488.714374951399	2
0	8112	124642.969056618681	3
0	8113	124695.722941102893	2
0	8169	125783.928264351336	3
0	8170	126582.841616784281	2
0	8196	127501.672232559264	1
0	8221	128876.215665695808	0
0	8359	130962.800995681746	1
0	8388	131201.137843839341	2
0	8397	131379.000064707937	3
0	8398	133150.343795620111	2
0	8419	133702.561692657519	1
0	8445	134354.90963409876	0
0	8585	135656.406982553317	1
0	8616	136157.610968970953	2
0	8625	136301.391122595908	3
0	8626	137419.084096616641	2
0	8652	138046.4061365077	1
0	8663	138244.72124072651	0
0	8733	139157.773665765852	1
0	8734	139173.872579601105	0
0	8922	141437.468388842551	1
0	8941	141628.320765927086	2
0	8949	141657.724033014515	1
0	8965	141768.782035429861	0
0	9168	143993.006051956901	1
0	9176	144045.561917612479	2
0	9195	144279.113635859948	3
0	9196	144821.128121709743	2
0	9214	145151.805615916323	1
0	9240	145753.141666617017	0
0	9401	148623.657706673786	1
0	9402	148673.810916613502	0
0	9437	148918.528205389002	1
0	9440	149049.925034796457	0
0	9444	149058.638266533158	1
0	9445	149086.070572570633	0
0	9759	152379.721605536994	1
0	9760	153319.00474633158	0
0	9873	155011.241970903971	1
0	9895	155470.75952765488	0
0	9911	155541.420584470519	1
0	9931	156362.795635090837	0
0	10285	161406.023792054884	1
0	10304	161721.811701350787	2
0	10327	162307.048318444504	1
0	10336	162403.825054278572	0
0	10456	163220.352427063494	1
0	10475	163492.785804995605	2
0	10476	164130.05366942246	1
0	10521	165279.371345114095	0
0	10600	165909.603713703272	1
0	10601	165926.201376129309	0
0	10863	169926.641645714508	1
0	10866	170014.073023280564	0
0	10952	170664.012999583088	1
0	10957	171067.816397444373	0
0	11026	171840.049884159509	1
0	11037	172098.23797043462	0
0	11081	172468.084067097258	1
0	11102	172648.729626232704	2
0	11133	173404.95679083217	3
0	11134	173628.218490491607	2
0	11140	173910.583650518674	1
0	11160	174245.961834389058	0
0	11244	175851.251318451686	1
0	11275	176548.658131445845	0
0	11298	176775.370404167045	1
0	11330	177005.907506777403	2
0	11331	177726.343236537997	1
0	11361	178325.990371882764	0
0	11713	182873.115246421951	1
0	11729	183089.486874094378	2
0	11730	183553.176823247518	1
0	11738	183865.977710755963	0
0	11925	185533.709814386973	1
0	11926	186333.21891398374	0
0	12082	188439.982252719989	1
0	12085	188495.728550119802	0
0	12253	189876.31087895223	1
0	12311	190695.351190844725	2
0	12330	190999.795353584233	3
0	12331	191755.513294950004	2
0	12387	192924.364844660921	3
0	12388	193064.897439673108	2
0	12421	193984.715547206719	1
0	12470	194542.420328463867	2
0	12501	195298.759299004953	3
0	12502	196260.489268338888	2
0	12525	196442.964232574863	1
0	12531	196476.701873978345	0
0	12617	197455.948814995262	1
0	12641	198229.365073040032	2
0	12642	198443.239346042454	1
0	12685	199132.914670311348	0
0	12768	199698.016949694893	1
0	12791	199995.617184551636	0
0	13083	203629.287707410908	1
0	13112	203949.54138095352	2
0	13128	204309.810452722582	3
0	13129	205097.006461989892	2
0	13145	205865.448339187979	1
0	13156	205942.412551397382	0
0	13424	209352.074928296489	1
0	13426	209361.048058155107	2
0	13455	210187.077255711443	1
0	13478	210416.292485308437	2
0	13497	210940.09461511856	1
0	13552	212129.11889358888	0
0	13556	212151.332937623004	1
0	13592	212629.01507075181	2
0	13611	213362.405801204484	1
0	13667	214067.939107324087	2
0	13668	214150.885599806671	1
0	13693	214852.243405489599	0
0	13871	217637.631167910197	1
0	13895	218135.796040301428	2
0	13896	218141.239621502651	1
0	13977	219126.46897922394	2
0	13983	219193.806806333385	3
0	13984	219641.893496858275	2
0	13997	219884.186954464698	1
0	14003	219964.363228782302	0
0	14181	222118.786007030024	1
0	14190	222228.14109469725	2
0	14203	222561.987638946957	1
0	14218	222647.28348705985	0
0	14227	222682.353471716914	1
0	14233	222801.540494414992	0
0	14718	233484.458416888062	1
0	14719	233529.940403331871	0
0	14850	239568.614435153465	1
0	14854	239612.082891837711	0
0	15036	241991.196220186512	1
0	15045	242062.766922158889	2
0	15066	242559.417967959916	3
0	15067	243100.315130564145	2
0	15083	243284.303644010933	1
0	15086	243298.269447425037	0
0	15231	246852.938028146027	1
0	15283	247772.270628666548	2
0	15284	247837.758287869511	1
0	15305	248078.227041695002	2
0	15311	248236.097325763769	1
0	15329	248483.202044929422	0
0	15402	249220.928354737063	1
0	15403	249874.471771843001	0
0	15594	251875.502169244331	1
0	15607	251967.696467374844	2
0	15613	252073.250018948489	1
0	15662	252867.553257494222	2
0	15668	253189.843586060068	1
0	15684	253285.947697271809	0
0	15915	256068.730516662749	1
0	15916	256435.013519514662	0
0	15965	257191.63003864375	1
0	15986	257771.017886259264	0
0	16070	258463.512994155846	1
0	16090	258857.304866550268	2
0	16092	258858.819871020445	3
0	16093	259312.05147856671	2
0	16096	259343.398471232647	1
0	16115	259559.2470552481	0
0	16382	261787.361032268648	1
0	16390	261824.8401799924	0
0	16436	262140.871782107622	1
0	16452	262323.205490758847	2
0	16483	262917.997523176001	1
0	16499	263057.25135182102	2
0	16548	264075.577561363698	3
0	16549	265675.877478082858	2
0	16557	266034.435149211916	1
0	16576	266185.825277545421	0
0	16961	272881.843155119808	1
0	17002	273300.052016604958	2
0	17004	273307.438911310705	3
0	17005	273927.744495208179	2
0	17021	274150.06762767902	1
0	17047	274652.377728299439	0
0	17128	275444.630817755616	1
0	17144	275773.320768199118	2
0	17147	276358.442948689515	1
0	17201	276895.454164630023	2
0	17214	277499.211442396108	1
0	17258	278132.158304663608	2
0	17271	278957.397531607793	1
0	17280	279020.737257257449	0
0	17470	281131.307736759501	1
0	17486	281406.873521204423	2
0	17517	283193.881291693405	3
0	17518	285895.289193761318	2
0	17544	286539.437232521027	1
0	17602	287406.388464335838	2
0	17616	287719.72028035973	1
0	17653	288132.775079481511	0
0	17657	288133.913642755295	1
0	17661	288195.813253841458	0
0	17811	289754.543230918136	1
0	17828	290003.520843846963	2
0	17859	290498.777907612836	3
0	17860	290825.569277377587	2
0	17871	290908.614750424222	1
0	17882	291062.074805506561	0
0	18064	292869.015119249854	1
0	18085	293407.52364323071	2
0	18087	293424.652249627617	3
0	18088	293557.088173157109	2
0	18101	293892.672550431	1
0	18127	294165.967156715005	0
0	18488	299777.53106283522	1
0	18522	300153.461038921473	2
0	18543	300470.327308907509	3
0	18544	300898.815875167927	2
0	18590	302597.815787250595	1
0	18608	302784.628168620109	2
0	18632	303199.730137801575	1
0	18683	304001.777990768051	2
0	18714	304973.019298996518	3
0	18715	305384.114089714795	2
0	18738	305560.863833853049	1
0	18754	305874.584149559139	0
0	18915	307062.538984209362	1
0	18936	307381.495902830567	2
0	18941	307427.902217731963	1
0	18955	307543.270224878073	2
0	18969	308009.026225516684	1
0	18985	308230.677545675276	0
0	19046	308721.654869913016	1
0	19051	308896.963435099456	0
0	19133	310162.152933236193	1
0	19155	310413.853534239258	0
0	19162	310425.449476668419	1
0	19178	310668.309185622382	0
0	19204	310922.739832745293	1
0	19222	311367.379483651962	0
0	19345	312051.270902036398	1
0	19387	312569.01001314789	2
0	19390	312627.601434539513	1
0	19398	312746.266367108378	0
0	19437	312997.543467525969	1
0	19476	313955.704805358642	0
0	19519	314334.577152609001	1
0	19528	314446.94753147772	2
0	19569	315546.030537157973	3
0	19570	315706.081959839261	2
0	19573	315712.894539957829	1
0	19609	316300.056198220657	0
0	19784	318506.271575644759	1
0	19785	318536.440788188042	0
0	19841	318980.280269740072	1
0	19849	319268.042355049017	0
0	19923	319898.531054855156	1
0	19937	320052.339693912967	2
0	19948	320272.832002626905	1
0	19986	320504.068392779828	2
0	19992	320720.88274882915	1
0	20001	320864.146057223937	0
0	20302	324644.312778206776	1
0	20316	324948.100850677474	0
0	20498	326169.338538796814	1
0	20512	326318.155802353609	2
0	20538	326743.73602790706	3
0	20539	328654.195984299837	2
0	20560	329111.50165394089	1
0	20573	329303.92926048419	0
0	20786	331909.681497155153	1
0	20807	332240.710921992446	0
0	20817	332272.374771857273	1
0	20826	332339.64273941848	2
0	20835	332573.648775133754	1
0	20875	333221.851343189356	0
0	21083	335437.059616054336	1
0	21089	335555.407120875007	0
0	21112	335721.325321591197	1
0	21114	335762.152556103173	2
0	21135	336273.083093644748	1
0	21143	336407.891902841238	0
0	21271	337246.54297373506	1
0	21334	338260.951461723316	2
0	21336	338287.350648339179	3
0	21337	338326.338905863528	2
0	21363	339790.196735824318	1
0	21369	339822.058534130202	0
0	21501	341876.398321985256	1
0	21502	342061.818389106209	0
0	21628	343087.321751551796	1
0	21676	343988.631901287955	2
0	21678	344008.152569916288	3
0	21679	344700.844283337822	2
0	21695	344981.020414849809	1
0	21726	345286.123591339563	0
0	21843	346469.618896356653	1
0	21844	346497.246658526369	0
0	22024	350063.733181955154	1
0	22045	350356.968606858397	0
0	22096	350812.320305789288	1
0	22100	350914.876771215571	2
0	22104	351359.693691470501	1
0	22107	351395.331628192519	0
0	22294	354766.408350357551	1
0	22331	355114.482883342336	2
0	22342	356551.57277466656	1
0	22375	356848.037622708324	2
0	22409	357844.832296440474	1
0	22419	357970.917182685769	0
0	22679	361189.45199179973	1
0	22702	361500.143840614745	2
0	22704	361623.35052768908	3
0	22705	361783.306002021201	2
0	22718	361847.106775897133	1
0	22756	362277.841805783274	0
0	22899	363288.175606863967	1
0	22903	363334.975099715909	2
0	22904	363376.076885489667	1
0	22935	363669.77682390816	0
0	22964	363932.763411675312	1
0	23015	364737.211148172024	2
0	23021	364940.154602234915	1
0	23049	365286.41586263174	0
0	23234	367164.876954775582	1
0	23263	367425.751520122105	2
0	23274	367705.964363786448	3
0	23275	367896.626627315808	2
0	23293	368331.028015608156	1
0	23307	368411.977366482362	0
0	23457	371419.419278765188	1
0	23483	371545.600370111997	2
0	23502	371775.158114128828	3
0	23503	372067.892227937653	2
0	23529	372761.210448255714	1
0	23540	373106.270443043809	0
0	23787	377960.559084298066	1
0	23813	378470.954737359569	2
0	23814	379292.976081197476	1
0	23870	380304.364273435903	2
0	23876	380385.833309521601	1
0	23926	381029.183842419966	0
0	23930	381050.325623340497	1
0	23984	382000.327475161824	2
0	23985	382402.546751814444	1
0	24041	382984.994169935854	2
0	24042	383892.84380872583	1
0	24078	384299.712919618171	0
0	24237	386438.83061389634	1
0	24238	386499.862862156506	0
0	24600	389860.19636137574	1
0	24611	389972.035373428151	2
0	24619	390810.362460943326	1
0	24655	391158.627243853888	2
0	24656	391274.948983035661	1
0	24685	391540.320470273421	0
0	24931	393811.374113101216	1
0	24970	394162.538429623639	2
0	24984	394365.279214652714	3
0	24985	394682.285758961573	2
0	25011	395267.830870835279	1
0	25057	395901.280662120185	0
0	25149	396674.453067707634	1
0	25150	397092.8209633237	0
0	25206	398078.287605511272	1
0	25267	399072.555397515716	2
0	25269	399137.424750498042	3
0	25270	399232.841051753641	2
0	25286	399798.705062161652	1
0	25317	400441.045047427768	0
0	25434	401739.954735822022	1
0	25435	402173.851360982632	0
0	25594	405428.086561128491	1
0	25595	405445.955858154169	0
0	25615	405555.569196088871	1
0	25622	405621.595277876538	2
0	25633	406102.072493060101	1
0	25681	406744.023322693258	0
0	25707	406892.354918941528	1
0	25743	407526.74108609828	0
0	25769	407745.999216792647	1
0	25775	407883.333747535716	0
0	25920	409633.052232312049	1
0	25922	409648.762750824601	2
0	25923	410153.406476999954	1
0	25971	411017.03962349258	0
0	25992	411135.292103381063	1
0	26016	411555.253569159317	0
0	26061	412084.370556634415	1
0	26062	412578.393688579629	0
0	26186	414194.174046024738	1
0	26197	414390.147864925752	0
0	26424	416677.559819381647	1
0	26450	416986.237986678179	2
0	26466	417307.21010750402	3
0	26467	417449.210071943689	2
0	26475	417782.540418991564	1
0	26494	418010.197211649312	0
0	26585	418764.549027665785	1
0	26588	418864.448807110094	0
0	26617	419170.883108637274	1
0	26628	419450.519276825683	0
0	26845	424096.621036202485	1
0	26881	424616.119342494135	0
0	26907	424899.734231794454	1
0	26913	425011.130979433906	0
0	27046	426447.019534890126	1
0	27047	426457.937184092018	0
0	27140	427394.724935770156	1
0	27158	427791.221412512847	0
0	27212	428125.978440139374	1
0	27217	428161.857064772169	0
0	27224	428201.442943827427	1
0	27259	429244.930393864564	0
0	27502	432929.015279472352	1
0	27517	433115.924683705878	0
0	27585	433648.616398393376	1
0	27652	436263.172680555995	2
0	27663	436460.785012435046	3
0	27664	436640.464324715126	2
0	27667	436648.283983653521	1
0	27695	436898.778097407495	0
0	27771	437629.529904561386	1
0	27772	437905.571227386079	0
0	27885	440265.477027432363	1
0	27886	440483.369790515213	0
0	27999	442148.694461101657	1
0	28000	442182.490786111432	0
0	28181	444594.317204013371	1
0	28202	445111.816964108227	2
0	28228	446053.610810592467	1
0	28239	446137.159520749017	2
0	28290	447398.702423477596	3
0	28291	447445.394542087197	2
0	28304	447680.132723187512	1
0	28393	449149.326805013146	2
0	28399	449296.752088914488	1
0	28410	449370.682927715742	2
0	28418	449785.602149089448	1
0	28439	449968.851394350383	0
0	28652	453138.439221632455	1
0	28658	453241.06911284077	2
0	28666	454119.121371980463	1
0	28689	454423.585543587217	0
0	28911	457705.240145480335	1
0	28912	457973.933045096357	0
0	29134	460031.544570230344	1
0	29171	460531.112777808222	2
0	29182	460695.984013928055	1
0	29228	461272.066167044044	2
0	29229	461390.616338183153	1
0	29275	462750.249082435016	0
0	29298	463039.437542339238	1
0	29309	463191.871358323877	0
0	29415	465004.511497930814	1
0	29425	465496.521314909912	0
0	29538	466615.246710016258	1
0	29577	467450.719576443742	2
0	29596	467655.54666139556	1
0	29599	467659.137063530172	0
0	29610	467709.70167107074	1
0	29626	467997.919676938763	0
0	29802	469564.817772538271	1
0	29818	469643.491854175429	2
0	29819	469755.983205154069	1
0	29822	469816.303361194025	0
0	29846	470027.640305866345	1
0	29854	470168.006300569199	0
0	30126	474180.118936587697	1
0	30135	474274.375597164946	2
0	30171	474911.038243998806	3
0	30172	475028.300851188831	2
0	30183	475137.159856339134	1
0	30239	476257.250499176197	0
0	30279	476816.267152624026	1
0	30300	477102.394568907719	0
0	30344	477416.546436585047	1
0	30354	477551.92783552985	0
0	30371	477633.178290022181	1
0	30394	478136.832118888482	0
0	30644	481141.799512154414	1
0	30645	481162.054134267523	0
0	30676	481292.834978604926	1
0	30682	481390.829962450403	0
0	31046	484538.064536391368	1
0	31052	484586.967934212196	2
0	31053	484759.924996602907	1
0	31066	484825.969872492675	0
0	31184	485795.028959527973	1
0	31188	485853.265603116698	0
0	31305	488338.302705458559	1
0	31346	489075.930510880597	0
0	31365	489209.915312546673	1
0	31384	489749.557667906666	0
0	31777	493734.484982966646	1
0	31788	493812.285452055164	0
0	31873	494404.187815345398	1
0	31907	494874.524798667686	2
0	31908	495457.555397388506	1
0	31923	495717.338636840243	0
0	32061	497160.202708820743	1
0	32093	497573.850916026348	2
0	32104	497774.008704422052	1
0	32110	497807.189853913347	0
0	32304	499659.704428432479	1
0	32326	499851.001552199784	2
0	32337	499970.440073207283	3
0	32338	500863.233483289531	2
0	32346	501208.795545812321	1
0	32364	501387.146006711686	0
0	32523	502832.142411928262	1
0	32534	503086.793818985883	2
0	32565	504127.58669591821	3
0	32566	504376.032057828571	2
0	32622	505420.709237592642	3
0	32623	505743.124920322004	2
0	32629	505825.685161124528	1
0	32672	506355.195320008351	0
0	32760	507416.747228506851	1
0	32779	507568.229850994434	2
0	32793	507679.749518118829	3
0	32794	507737.090295271466	2
0	32850	508952.872109987587	3
0	32851	509143.120245478393	2
0	32897	510354.287082099016	1
0	32910	510479.841941010509	2
0	32934	510923.402142195955	1
0	32964	511317.870809817053	0
0	33167	512724.793808547156	1
0	33182	512780.691491165718	0
0	33189	512844.022403935688	1
0	33193	512882.079481689295	0
0	33203	512909.877580303508	1
0	33244	513305.43382628307	0
0	33521	519628.711351522022	1
0	33537	519953.079404216886	0
0	33739	521846.147790203855	1
0	33753	521915.867709274378	2
0	33762	521975.065498729103	3
0	33763	522529.627880163635	2
0	33771	522850.330984286095	1
0	33784	522946.072451272811	0
0	33987	525883.623495017301	1
0	33991	526022.263382694689	0
0	34212	529870.202279270431	1
0	34213	530130.023861702564	0
0	34309	530860.460476130577	1
0	34323	531067.274907903962	2
0	34332	531422.923692001801	3
0	34333	533003.937092436335	2
0	34336	533119.911384844627	1
0	34384	533917.355339452499	0
0	34698	538393.438217907667	1
0	34700	538481.059410848844	2
0	34718	539060.368409201484	1
0	34734	539196.275220953668	2
0	34788	540188.568019304465	3
0	34789	540326.268549310123	2
0	34795	540430.103996252264	1
0	34871	541606.186272750637	2
0	34872	542282.880305665415	1
0	34940	543006.794321742838	2
0	34959	543325.864633530048	3
0	34960	543898.051654338871	2
0	34981	544462.978420610021	1
0	34994	544574.300442594241	0
0	35256	549239.192384460237	1
0	35282	549424.292711012819	2
0	35291	549556.352615521699	1
0	35299	549692.685383942174	0
0	35312	549784.999445259376	1
0	35334	550038.353979242217	0
0	35586	552728.5259233254	1
0	35619	553113.583351253589	0
0	35667	553555.47926961032	1
0	35669	553885.165696458348	2
0	35677	554529.792369126197	1
0	35726	555404.696619432679	2
0	35727	555420.368264475032	1
0	35788	556884.703500441843	2
0	35794	557078.75339645782	1
0	35840	557388.658986497573	2
0	35871	558097.626503409099	3
0	35872	558877.145655802215	2
0	35878	558972.603098643008	1
0	35881	558988.428102933477	0
0	36109	560847.910220443848	1
0	36119	560931.602316053787	0
0	36128	561012.615141796479	1
0	36181	561963.978450516226	0
0	36190	562011.910747051872	1
0	36191	562026.438181825138	0
0	36264	562860.726290401127	1
0	36265	562917.12853337249	0
0	36549	567047.637348458671	1
0	36553	567213.468583941247	0
0	36780	569316.830152240954	1
0	36789	569426.683347954771	0
0	36832	569715.664258955101	1
0	36866	570528.759191380307	2
0	36867	571555.545441875033	1
0	36873	571724.782506204517	0
0	37315	579407.016854055546	1
0	37319	579493.718596535915	0
0	37340	579644.640903961451	1
0	37374	580003.534872054823	2
0	37382	580145.668792569203	1
0	37448	580683.577280373152	2
0	37449	580708.86496327689	1
0	37490	581266.924137051151	2
0	37494	581745.95779081768	1
0	37532	582286.391093734638	0
0	37684	583944.244927049384	1
0	37713	584265.303488000654	0
0	37729	584312.269871353871	1
0	37730	584477.156985602807	0
0	37925	586713.34243507458	1
0	37966	587268.2947700839	2
0	37975	587397.505585161305	1
0	37983	587432.304495541141	2
0	37992	587655.939652267717	1
0	38038	588400.604051233921	0
0	38079	588708.882350770685	1
0	38084	588875.880029979168	0
0	38145	589408.141349546826	1
0	38154	589731.747909788497	0
0	38202	590163.860578715768	1
0	38234	590870.576570530833	2
0	38235	591868.971356875593	1
0	38243	592004.22435115414	0
0	38399	594432.250205573283	1
0	38425	594756.024207437409	2
0	38431	594817.515755716179	1
0	38439	594861.013268212408	2
0	38465	595801.452481211203	1
0	38478	595886.953281554417	0
0	38738	599013.664380852125	1
0	38756	599233.530411341928	0
0	38775	599323.729298542124	1
0	38779	599406.12261315575	0
0	38797	599574.9205582309	1
0	38808	599703.281916037073	0
0	39078	603295.628029337592	1
0	39099	603674.958996096134	2
0	39120	604001.277638555355	3
0	39121	604272.886901750344	2
0	39132	604381.579997531577	1
0	39178	605043.430130866557	0
0	39306	606017.931759607099	1
0	39307	606062.738286936457	0
0	39330	606255.789573140425	1
0	39346	606812.483962710614	0
0	39524	608612.453228050798	1
0	39535	608877.698166140744	0
0	39553	609092.330515798384	1
0	39567	609289.617162267047	0
0	39694	610968.117831183015	1
0	39705	611124.08012031648	0
0	39764	611535.951417715428	1
0	39802	612102.302365855973	2
0	39804	612126.524324641107	3
0	39805	612461.291653820283	2
0	39828	613071.661847841688	1
0	39862	613952.915167329704	0
0	39928	614573.812779862609	1
0	39949	614822.440287536673	2
0	39975	615294.01721089063	3
0	39976	615483.357329646217	2
0	40019	616887.538175826549	1
0	40022	616948.679220467441	0
0	40197	619887.038089428939	1
0	40198	620392.587533865916	0
0	40250	620996.914326854898	1
0	40251	621002.587434283411	0
0	40391	622551.825099039504	1
0	40400	622667.069119822134	2
0	40431	623199.319311027753	3
0	40432	623699.703691766247	2
0	40455	624137.637189965419	1
0	40489	624894.672669749185	0
0	40653	630640.499421641057	1
0	40685	631409.294514808858	2
0	40716	632228.512825322491	3
0	40717	632745.418425273724	2
0	40740	633057.489433826839	1
0	40756	633541.831104241963	0
0	40872	634504.669575686132	1
0	40918	635310.883547973078	2
0	40944	635762.422749507127	3
0	40945	636164.89002494561	2
0	40953	636246.568740429642	1
0	40984	636546.930463524593	0
0	41057	637280.596617683718	1
0	41094	637902.383332290744	2
0	41105	638239.965631706217	1
0	41115	638271.806839974774	0
0	41129	638300.019020318738	1
0	41167	638833.714908416784	0
0	41229	639783.276103592347	1
0	41255	640244.269621259106	2
0	41271	641244.125318703998	1
0	41304	641577.547415077658	2
0	41313	641748.025255500961	1
0	41324	641856.874655236768	0
0	41568	645064.145099350265	1
0	41569	645089.425871877454	0
0	41719	648250.944206528517	1
0	41720	648321.751035762771	0
0	41751	648501.333106480067	1
0	41755	648549.644024722885	2
0	41769	649075.637552160488	1
0	41802	649363.151253330763	0
0	42249	655532.567136618532	1
0	42281	655983.372545857094	2
0	42292	656885.04771881985	1
0	42323	657254.319261424205	2
0	42326	657323.645962762042	1
0	42329	657329.498532893233	0
0	42477	659478.750248812227	1
0	42478	659645.128329073722	0
0	42594	660705.328691604999	1
0	42615	661318.651853017008	0
0	42819	662883.09156743505	1
0	42866	663771.996323584501	0
0	42882	663905.478291767542	1
0	42894	664182.835479171608	0
0	42903	664225.343711757129	1
0	42945	664976.104679005596	0
0	42973	665274.714875861032	1
0	42991	666084.074271696583	0
0	43112	667734.39489229256	1
0	43121	667941.156973297193	0
0	43176	668379.764001508184	1
0	43188	668458.31859142401	2
0	43194	668671.145478261004	1
0	43212	668994.635916139999	0
0	43355	670361.757227424907	1
0	43371	670675.838860733635	2
0	43395	670905.598356297787	3
0	43396	671294.481287372252	2
0	43422	671963.225948719726	1
0	43447	672354.515373272079	0
0	43591	674532.374511068797	1
0	43621	674791.699092300183	2
0	43623	674826.259261786022	3
0	43624	675223.227956202694	2
0	43652	675722.439326793373	1
0	43671	675937.798450788786	0
0	43719	676307.33815232332	1
0	43732	676645.838388275235	0
0	43796	677185.911182738231	1
0	43807	677311.485199494292	0
0	43828	677466.859252659414	1
0	43832	677773.220975109973	0
0	43985	680235.912327759526	1
0	44003	680400.435426917896	2
0	44009	680435.393678581716	1
0	44025	680543.994572122707	0
0	44274	683198.142248962141	1
0	44276	683202.955778329667	2
0	44282	683761.757531151269	1
0	44313	684002.135665735984	2
0	44334	684589.782055233081	1
0	44359	684966.477104159292	0
0	44478	687941.177987194929	1
0	44498	688750.039504613401	0
0	44807	693400.583808308587	1
0	44823	693831.189532366926	0
0	44928	694807.535800896605	1
0	44967	695659.717056515616	0
0	44983	695686.325944680968	1
0	44987	695718.623943184882	0
0	45042	696097.747413314293	1
0	45043	696412.76318299339	0
0	45156	698399.834980143275	1
0	45208	698983.780971777679	2
0	45209	699026.849304302539	1
0	45215	699118.058248347887	0
0	45261	699453.659255677711	1
0	45282	699805.23560034539	0
0	45384	701019.768358585962	1
0	45431	701440.539598281677	2
0	45447	701689.333576648358	3
0	45448	701833.634770329088	2
0	45469	702286.974845955627	1
0	45490	702579.902161174255	0
0	45692	705435.27379013012	1
0	45695	705459.764884215414	0
0	46289	712380.097611642386	1
0	46313	712748.455354643041	0
0	46421	713863.62926350207	1
0	46442	714207.137178665011	2
0	46443	715100.943237754892	1
0	46449	715138.643765133942	0
0	46646	719885.899299377688	1
0	46652	719947.517228981854	0
0	46874	722654.189318085835	1
0	46875	722750.827092862185	0
0	47037	725059.557032266059	1
0	47038	726038.046812252466	0
0	47151	726826.89282691153	1
0	47157	727037.295251538429	0
0	47224	727443.765182288208	1
0	47240	727891.423278097666	2
0	47261	728267.690090852105	1
0	47287	728523.326300096386	2
0	47298	728875.197063600594	1
0	47339	729537.127853672915	0
0	47444	730892.760430006379	1
0	47468	731273.003034019655	2
0	47469	732096.690294564541	1
0	47484	732333.344205970823	0
0	47700	735634.504933074922	1
0	47725	735834.172200249121	2
0	47727	735883.450311876584	3
0	47728	736010.560255465124	2
0	47754	736847.023371279747	1
0	47805	738230.391894755638	0
0	48175	743156.776704843306	1
0	48178	743416.48367659399	0
0	48405	746495.296296862599	1
0	48406	746646.343155558746	0
0	48527	748312.063640482186	1
0	48568	748837.403493767903	0
0	48584	748932.470857980805	1
0	48598	748995.675740400306	2
0	48606	749206.205728110997	1
0	48625	749585.343834234818	0
0	49271	756713.775531379556	1
0	49277	756805.736724424445	0
0	49320	757091.33991017188	1
0	49326	757180.195519195758	0
0	49375	757728.116867978417	1
0	49383	757792.268127922497	0
0	49431	758314.610290892895	1
0	49440	758360.070490824232	0
0	49474	758672.602075501489	1
0	49512	759538.607534561831	0
0	49702	761534.874412955514	1
0	49711	761575.923001979118	2
0	49712	761637.789024841099	1
0	49733	761840.10769689662	2
0	49734	761847.277369022416	1
0	49774	762423.00768748658	0
0	49996	765763.324436130905	1
0	49997	765767.423574086495	0
0	50058	766066.331955906665	1
0	50059	766452.731944983377	0
0	50205	769016.858546461231	1
0	50216	769142.942359074765	2
0	50235	769248.62424949633	3
0	50236	769843.655245325986	2
0	50259	770358.108735384112	1
0	50323	771205.763366842665	2
0	50329	771394.827220484689	1
0	50342	771590.985420935134	0
0	50363	771718.195920188021	1
0	50364	771767.706185439168	0
0	50514	773662.433709754742	1
0	50523	774135.307143718582	0
0	50628	775170.668274559738	1
0	50677	776676.708513318388	2
0	50686	777019.13493639443	1
0	50694	777070.180944235579	2
0	50718	778522.66928637956	1
0	50739	778735.395202321466	0
0	50970	782710.786230427686	1
0	50971	782913.810624805175	0
0	51186	785798.609676116501	1
0	51199	786282.252851941786	0
0	51260	787397.774197527993	1
0	51312	788102.359747765419	2
0	51318	788223.529093864628	3
0	51319	788937.68691247242	2
0	51332	789239.675279064632	1
0	51361	789534.974626748706	0
0	51721	793851.934224541137	1
0	51738	794099.891253291004	2
0	51744	794743.864871537738	1
0	51770	795191.164510355221	0
0	51945	796923.504566774826	1
0	51991	797310.774393557157	2
0	51992	797341.412008543207	1
0	51998	797358.163146605061	0
0	52296	799697.501945832752	1
0	52302	799853.748194859064	0
0	52329	800047.074791035638	1
0	52375	800520.834130808088	2
0	52401	800868.153088607819	3
0	52402	801060.31236553448	2
0	52448	801737.04660371859	1
0	52456	801850.669318138363	0
0	52472	801946.195245194496	1
0	52518	802593.586447169826	0
0	52566	803418.00099451849	1
0	52597	803854.694241633242	0
0	52629	804035.731131394002	1
0	52642	804387.244546527889	2
0	52668	804961.925894052635	1
0	52691	805267.234352198906	0
0	52743	805740.800438560288	1
0	52789	806440.273341692622	2
0	52800	806643.396492939087	3
0	52801	806983.319282671697	2
0	52824	807334.444717557815	1
0	52855	808052.677030829223	0
0	53077	810061.379156322581	1
0	53080	810336.532849084316	0
0	53193	811761.961942943541	1
0	53225	812363.103780610522	2
0	53238	812911.720153326769	1
0	53277	813434.805319000643	2
0	53300	814208.325766539454	1
0	53330	814610.346230618779	0
0	53337	814650.978593981052	1
0	53363	814960.213596773279	0
0	53478	816037.090352570978	1
0	53482	816112.39284388947	0
0	53649	818931.51977133475	1
0	53681	820032.313760949953	2
0	53684	820289.405941990176	1
0	53687	820295.754295245782	0
0	53741	820721.570131865119	1
0	53787	821478.255473294771	0
0	53934	823131.183431072559	1
0	53935	823553.618210177741	0
0	54056	825615.051496780842	1
0	54080	825890.740879200844	2
0	54086	826220.402626815068	1
0	54126	826733.669100719794	0
0	54140	826818.177074329891	1
0	54216	828236.5691599937	2
0	54225	828367.863373147354	3
0	54226	828371.431645431835	2
0	54247	828641.480052014216	1
0	54258	828957.437858556375	0
0	54534	833886.112966498495	1
0	54535	833912.318834213941	0
0	54542	833953.163709681606	1
0	54593	834819.202239553329	2
0	54594	834938.76874546303	1
0	54615	835156.305746366038	0
0	54735	836234.945495564956	1
0	54771	836487.466771573409	2
0	54780	836654.919748959568	1
0	54817	837171.820371241036	0
0	54827	837281.462626674328	1
0	54830	837350.238856190644	0
0	55159	841139.867984569441	1
0	55168	841161.782772459567	2
0	55194	841412.952534198249	3
0	55195	842522.168392397468	2
0	55221	843175.177296752395	1
0	55239	843467.776431743061	0
0	55439	845280.392263156236	1
0	55473	845604.521207036104	2
0	55479	845792.422236740642	3
0	55480	846485.025223982928	2
0	55493	846609.363116516729	1
0	55531	847188.931577020973	0
0	55684	848189.463107175951	1
0	55693	848528.98763566555	0
0	55883	849880.326327374574	1
0	55901	850129.496573442761	2
0	55905	850199.456668580055	1
0	55918	850425.682008978443	0
0	55979	850959.81704054746	1
0	56018	851963.484527760701	2
0	56019	851978.614605290111	1
0	56070	852460.709284479979	2
0	56081	852784.449835296515	1
0	56124	853379.807786630257	2
0	56133	853670.870072416763	1
0	56149	854117.055031275308	0
0	56271	856036.703800906842	1
0	56323	856857.97232895869	2
0	56329	856913.161365467969	1
0	56337	856964.443116334918	2
0	56373	858029.417873650499	1
0	56397	858243.387202656723	0
0	56688	861232.444016171669	1
0	56697	861336.642052073033	0
0	56715	861437.957284886229	1
0	56741	861820.97099664361	0
0	56777	862095.659450360214	1
0	56785	862301.767668675729	0
0	57060	866493.840302906431	1
0	57066	866533.966028050961	2
0	57075	867020.91569002132	3
0	57076	867760.407970386244	2
0	57079	867842.533491810318	1
0	57115	868290.932952947214	0
0	57299	869714.991659959735	1
0	57300	869746.949350753812	0
0	57304	869759.556870495483	1
0	57309	869808.112208398436	2
0	57310	869817.234423092232	1
0	57351	870401.048465160787	0
0	57491	871758.204064121099	1
0	57529	872095.518351695211	2
0	57531	872101.094378784404	3
0	57532	872842.094036764498	2
0	57558	873509.22033595975	1
0	57561	873513.003604898061	0
0	57696	874759.760820776391	1
0	57697	874886.59470602347	0
0	57818	875775.160485932553	1
0	57847	876192.050050011728	2
0	57850	876300.489286849855	1
0	57886	876747.077946407547	0
0	57894	876755.223250420201	1
0	57925	877918.949048764365	0
0	58152	881392.391779791823	1
0	58153	881547.683198279244	0
0	58380	885123.76146308869	1
0	58412	885943.441095091802	2
0	58413	886082.053925437131	1
0	58469	886962.071532865969	2
0	58477	887281.876625837974	1
0	58483	887284.510924507523	0
0	58722	890888.54246172663	1
0	58746	891565.541749513727	0
0	58757	891691.090353238498	1
0	58783	892335.668467668989	0
0	58884	893364.842988517688	1
0	58920	894726.91823608039	0
0	58928	894758.994298210725	1
0	58952	895037.074813400603	0
0	59007	895534.501544142875	1
0	59038	896048.270618400976	0
0	59042	896049.351102871114	1
0	59073	896413.037069939938	0
0	59117	896661.587706782387	1
0	59158	897555.56377926919	2
0	59184	898355.356579642461	3
0	59185	898582.640514287636	2
0	59201	898844.817058016495	1
0	59284	900528.648163652904	2
0	59298	900842.286854086073	3
0	59299	900968.39220027358	2
0	59325	901810.366108758619	1
0	59328	901896.617629134536	0
0	59592	903810.785946647931	1
0	59608	904059.412618726659	0
0	59612	904098.023621274698	1
0	59643	904700.200931762951	0
0	59826	907513.519753569647	1
0	59842	907651.585475505056	2
0	59845	907666.158360417013	1
0	59894	908171.993259161365	2
0	59917	909440.251453193652	1
0	59923	909452.563053140353	0
0	59949	909653.851934898092	1
0	60008	911857.966965957647	2
0	60009	912422.337411679373	1
0	60022	912668.660265419516	0
0	60234	915195.440238218754	1
0	60236	915231.252983747636	2
0	60237	915672.008599725983	1
0	60273	916281.136916194491	0
0	60368	916818.645111582262	1
0	60414	917647.024615321064	2
0	60438	918159.024046796444	3
0	60439	920809.139209527291	2
0	60450	921114.375569061414	1
0	60465	921251.88039549475	0
0	60616	922924.188643346658	1
0	60635	923168.728866184262	0
0	60680	923565.315214382039	1
0	60682	923589.199515983705	2
0	60705	924115.526570700665	1
0	60746	924428.212178281383	2
0	60780	924957.170140806983	3
0	60781	925734.232598018352	2
0	60807	926686.223892306959	1
0	60832	927530.22922003896	0
0	61002	932145.938949199821	1
0	61009	932862.294839039999	0
0	61196	934289.340599948875	1
0	61207	934338.278827187404	2
0	61236	935356.311875849197	3
0	61237	935559.376522830597	2
0	61263	936473.394325842835	1
0	61271	936491.191758105894	0
0	61570	940796.182318104321	1
0	61572	940849.270408627233	2
0	61578	940926.295009835504	3
0	61579	941498.794172725899	2
0	61582	941531.318918913692	1
0	61590	941605.331233875694	0
0	61788	945169.013409045101	1
0	61834	945863.893250341399	2
0	61863	946411.634108189373	3
0	61864	947133.289709657639	2
0	61890	947821.00097898878	1
0	61908	948180.101237939415	0
0	62028	950019.377298077654	1
0	62029	950081.221076037147	0
0	62252	952871.909296375357	1
0	62280	954187.105766729718	0
0	62299	954319.86863865952	1
0	62314	954957.392346222605	0
0	62370	955957.413882502593	1
0	62371	955967.147588065171	0
0	62621	960591.091465000974	1
0	62630	960733.922280914907	2
0	62631	961125.350113525578	1
0	62656	961673.381859613895	0
0	62940	965215.876971687865	1
0	62951	965490.997308941634	0
0	63047	966279.372460867503	1
0	63068	966727.157271531363	0
0	63124	967236.133375533296	1
0	63143	968039.690845155414	2
0	63144	968514.222923190726	1
0	63202	969211.649366596804	2
0	63208	969317.759383024272	1
0	63219	969408.349159648253	0
0	63342	971292.98032485386	1
0	63343	971338.913336890485	0
0	63382	971689.426916279396	1
0	63388	971866.828086579062	0
0	63513	973179.794395656638	1
0	63547	973448.404751255694	2
0	63558	973582.61537725519	1
0	63581	973855.603482186698	0
0	63681	974701.891987298991	1
0	63685	974758.515191705925	0
0	63790	975410.260746771819	1
0	63801	975590.715337584103	0
0	63850	976029.31097317603	1
0	63884	976401.362657382851	2
0	63910	977204.608209401698	1
0	63921	977250.987809029054	2
0	63942	977839.563489387895	1
0	63994	978402.547134870154	0
0	64001	978414.178786382604	1
0	64055	979294.437845952359	2
0	64086	980283.493959543661	3
0	64087	980988.78612708679	2
0	64113	982257.154398774693	1
0	64116	982308.498872367811	0
0	64308	983570.559995553141	1
0	64340	983784.470853579773	2
0	64341	984023.689654651562	1
0	64397	984818.125995169967	2
0	64398	985349.922891403425	1
0	64409	985592.8627344384	0
0	64705	991151.484815161859	1
0	64734	991318.069483036088	2
0	64740	991860.558821291386	1
0	64771	992175.556449769822	0
0	65277	998256.858997496948	1
0	65278	998319.519531447463	0
0	65505	1001054.404455894566	1
0	65506	1001102.091508534517	0
0	65788	1004589.464142020073	1
0	65789	1004604.560476199068	0
0	65961	1007579.160540788978	1
0	65962	1008240.80404975021	0
0	66075	1010012.028793099209	1
0	66076	1010195.934923595881	0
0	66212	1011671.762569990584	1
0	66243	1012110.076646550629	2
0	66244	1012176.432303056135	1
0	66258	1012356.940826531023	2
0	66279	1013502.966551920114	1
0	66304	1014262.939120825517	0
0	66417	1015439.173608571623	1
0	66469	1016373.39259337352	2
0	66480	1016470.281635953126	3
0	66481	1016878.553121151513	2
0	66497	1017256.988228983466	1
0	66520	1017530.991015148835	0
0	66675	1018769.948530875763	1
0	66676	1018774.640737126199	0
0	66685	1018840.081263599254	1
0	66736	1019694.767683851901	2
0	66765	1020343.869796357698	3
0	66766	1022045.948819611613	2
0	66822	1023697.04361509789	3
0	66823	1024941.762534609198	2
0	66836	1025383.309225468591	1
0	66874	1026829.796704046764	0
0	67359	1032827.024873101472	1
0	67361	1032833.509510673898	2
0	67377	1033375.79182339746	1
0	67403	1033557.754115785121	0
0	67426	1033718.022376658516	1
0	67481	1034247.179053237063	0
0	67582	1034871.618354475702	1
0	67606	1035054.321992535572	2
0	67615	1035177.127399034343	1
0	67633	1035337.498373675973	2
0	67676	1036673.947938348152	1
0	67679	1036703.487172222537	0
0	67703	1036797.67176274448	1
0	67722	1037201.697048449083	0
0	67848	1039657.932226147132	1
0	67853	1039737.430172685742	0
0	67902	1040147.014063102853	1
0	67930	1040610.595049249246	0
0	67934	1040625.478188873997	1
0	67963	1040872.247518862915	0
0	68004	1041188.217739350557	1
0	68014	1041353.819398068435	0
0	68214	1043923.607178364492	1
0	68231	1043984.394233605681	2
0	68232	1044012.762586418599	1
0	68263	1044290.466824356947	2
0	68304	1045170.451624482043	3
0	68305	1045845.675190302919	2
0	68331	1046731.92839187975	1
0	68352	1047047.611494316543	0
0	68521	1048470.921039091355	1
0	68537	1048718.513160952646	0
0	68576	1048907.969763767294	1
0	68582	1049109.534479531788	0
0	68702	1050118.064193749312	1
0	68719	1050471.529071294269	0
0	68732	1050588.590538047361	1
0	68766	1050838.050251260623	0
0	68990	1052785.328056749472	1
0	68999	1052984.208449281033	0
0	69025	1053283.869902045431	1
0	69028	1053412.844755201559	0
0	69153	1054973.118994146326	1
0	69154	1055427.205745056016	0
0	69625	1060687.207202902688	1
0	69641	1060946.67156224202	2
0	69672	1061577.78465210859	3
0	69673	1062399.24587007415	2
0	69701	1063149.633444119624	1
0	69770	1063951.676994823961	2
0	69778	1064128.963606660977	1
0	69792	1064215.94164981019	2
0	69810	1064616.515726729619	1
0	69819	1064721.091427167313	0
0	70018	1067109.777173800699	1
0	70039	1067289.633064747576	0
0	70068	1067431.117481650942	1
0	70087	1067717.405263396254	0
0	70108	1067838.133126668223	1
0	70144	1068396.198844493343	0
0	70162	1068482.745423846868	1
0	70173	1068609.296679591674	0
0	70385	1071272.209126344799	1
0	70389	1071286.682353114209	0
0	70547	1073124.334100955059	1
0	70582	1073753.848391240404	2
0	70584	1073840.70048495453	3
0	70585	1074089.484360761538	2
0	70598	1074855.869166311863	1
0	70659	1075926.556956550391	0
0	70673	1076018.166664722305	1
0	70696	1076622.519311763346	0
0	71035	1079893.165540721786	1
0	71036	1079939.950892883617	0
0	71074	1080262.19148296074	1
0	71075	1080269.219051812584	0
0	71205	1082054.552989142861	1
0	71206	1082146.437310322082	0
0	71351	1083438.313650023623	1
0	71353	1083469.084387539926	2
0	71354	1083551.250156237006	1
0	71398	1083959.055775101022	2
0	71439	1085334.700864304464	3
0	71440	1085747.117557806758	2
0	71456	1086225.924547512829	1
0	71472	1086329.994483471386	0
0	71634	1088714.753481284277	1
0	71636	1088761.524895366642	2
0	71637	1088790.195812098922	1
0	71660	1089290.855581598275	0
0	71716	1089764.082403446512	1
0	71725	1090305.688425330241	0
0	71801	1091092.201639226221	1
0	71807	1091128.965194749246	2
0	71813	1091348.380538572935	1
0	71864	1092131.948665049023	2
0	71865	1092609.145851829521	1
0	71868	1092650.940321159478	0
0	72138	1096485.601437447669	1
0	72139	1096485.943909886634	0
0	72459	1102510.07608207434	1
0	72493	1103081.775432469761	0
0	72531	1103433.067880571501	1
0	72533	1103436.686201130113	2
0	72579	1104568.529415322952	3
0	72580	1104907.563219941493	2
0	72586	1105158.652761498776	1
0	72599	1105215.657242690232	0
0	72801	1107321.79196528792	1
0	72802	1107340.546342407831	0
0	72972	1109525.172698373342	1
0	72973	1109827.41981330204	0
0	73121	1111173.62031569038	1
0	73125	1111275.1616112969	2
0	73134	1111436.744193375849	1
0	73154	1111652.581672526711	0
0	73170	1111817.852320782467	1
0	73189	1112246.388164929719	0
0	73352	1113881.465379296786	1
0	73358	1113946.004574938677	2
0	73377	1114297.054915737076	3
0	73378	1114324.075732140107	2
0	73396	1114629.984270400057	1
0	73452	1115930.205882827062	0
0	73483	1116223.393511933085	1
0	73504	1116427.461719622152	2
0	73540	1117812.395525935059	1
0	73556	1118057.25193859479	2
0	73575	1118731.835403821307	1
0	73588	1118890.684153840686	0
0	73713	1121447.914244354646	1
0	73714	1121734.07939610481	0
0	73890	1125023.729604407063	1
0	73898	1125148.412598025458	0
0	73941	1125612.797270508091	1
0	73973	1126119.595617024443	2
0	73976	1126858.252904115854	1
0	74022	1127225.045641739657	0
0	74038	1127406.19810735859	1
0	74087	1128315.383856778769	2
0	74095	1128854.664261115056	1
0	74144	1129438.953144211078	2
0	74145	1130015.328617099341	1
0	74201	1130570.063180372729	2
0	74202	1130929.726916376504	1
0	74205	1130959.439044318666	0
0	74408	1132602.986689039347	1
0	74429	1132938.499867258099	2
0	74460	1133925.390744945397	3
0	74461	1133945.234587646311	2
0	74479	1134315.492815563689	1
0	74495	1134414.458077156976	0
0	74715	1136951.836882719719	1
0	74743	1137082.500802031698	2
0	74745	1137099.47023761975	3
0	74746	1137359.43501615404	2
0	74749	1137370.892538118687	1
0	74757	1137505.953002990272	0
0	75032	1140010.492467977182	1
0	75041	1140168.315209381553	0
0	75064	1140330.179067255366	1
0	75123	1140854.549459492191	2
0	75144	1141123.790448594886	3
0	75145	1141269.737820860707	2
0	75166	1141546.60053138514	1
0	75174	1141593.421442603317	0
0	75332	1143238.493441981755	1
0	75341	1143363.797985679265	2
0	75342	1143382.471214270167	1
0	75367	1143851.324107766844	0
0	75501	1144669.288273065703	1
0	75511	1144905.398448837847	0
0	75523	1145111.052059587773	1
0	75524	1145204.217291900086	0
0	75741	1148338.556353634111	1
0	75765	1148551.636960048921	2
0	75771	1148705.300576891708	3
0	75772	1150909.815527924918	2
0	75798	1151574.566247653912	1
0	75809	1151741.400830421678	0
0	76014	1153255.488238119218	1
0	76032	1153416.12407234842	2
0	76033	1153421.553950893971	1
0	76041	1153507.027985287334	0
0	76212	1155666.987570794422	1
0	76225	1155982.140273416142	2
0	76227	1155991.483207579672	3
0	76228	1157313.051305270112	2
0	76254	1158251.149936064659	1
0	76300	1158782.181952812898	2
0	76301	1158807.797144032137	1
0	76314	1159150.007844932311	0
0	76398	1159745.240169089233	1
0	76429	1160195.347628714538	0
0	76437	1160200.765930807986	1
0	76476	1160424.318463343443	2
0	76482	1160679.401604145843	1
0	76534	1161419.795258313392	0
0	76544	1161584.290581485238	1
0	76590	1162063.605179327754	2
0	76593	1162130.758626618345	1
0	76644	1162638.386559063195	2
0	76648	1162672.078852650356	1
0	76716	1163825.438074103453	2
0	76732	1164172.954518029606	1
0	76746	1164319.917438150612	2
0	76767	1164814.994500031879	1
0	76792	1165038.684690480899	0
0	76846	1165308.75729056165	1
0	76905	1166465.796514535906	2
0	76911	1166509.224816512908	3
0	76912	1168254.864239554947	2
0	76918	1168499.213373301004	1
0	76963	1169119.249634532399	0
0	77216	1172684.704939358577	1
0	77222	1172719.799673135729	2
0	77253	1173657.344490364592	3
0	77254	1173709.256159534236	2
0	77280	1174426.986326226411	1
0	77283	1174478.67507152326	0
0	77558	1179711.314161240557	1
0	77566	1179852.332959587271	2
0	77580	1180349.501705480952	1
0	77611	1180741.50942780983	2
0	77622	1181425.452349295436	1
0	77650	1181774.192179994163	0
0	77706	1182108.213324534636	1
0	77745	1182585.6885273759	2
0	77766	1183428.675317839861	3
0	77767	1187881.258490681851	2
0	77823	1190089.484605999619	3
0	77824	1190171.106551376009	2
0	77879	1191195.855264125879	1
0	77886	1191285.373921346141	2
0	77907	1192310.548724149377	1
0	77918	1192404.581204967467	0
0	78122	1194504.619938713308	1
0	78156	1194872.831075220562	2
0	78165	1195037.155119724665	3
0	78166	1195076.659249311764	2
0	78192	1195709.229726522196	1
0	78200	1195842.554383253551	0
0	78615	1203752.598846091762	1
0	78654	1204448.996172619845	0
0	78689	1204775.861538907403	1
0	78694	1204829.24415832329	2
0	78700	1205090.012712112597	1
0	78768	1205818.784047871554	2
0	78777	1205970.17427720115	1
0	78805	1206237.883170208784	2
0	78849	1207476.541831197829	3
0	78850	1207744.870661454254	2
0	78861	1208120.35467388785	1
0	78931	1209541.55791855803	0
0	78938	1209562.268011834938	1
0	79014	1210858.39456967154	2
0	79020	1210957.872075869473	3
0	79021	1211121.924745203574	2
0	79062	1211724.199159889517	1
0	79085	1211895.486803870743	2
0	79106	1212382.899843189142	1
0	79122	1212659.897804627747	0
0	79245	1214170.00763629111	1
0	79294	1214852.685630909294	2
0	79297	1214888.076993307616	1
0	79303	1214922.061789286473	0
0	79314	1214977.708707675266	1
0	79340	1215317.985081374497	0
0	79587	1219625.492328897142	1
0	79591	1219661.56014971521	0
0	79637	1219932.069129863349	1
0	79674	1220293.326124798039	0
0	79678	1220295.783852886281	1
0	79720	1220707.057834975221	0
0	79728	1220727.99679633623	1
0	79759	1221093.710072820046	0
0	79979	1223579.18451186835	1
0	80015	1224014.218517697114	2
0	80016	1224153.937282738104	1
0	80064	1224784.312566179633	0
0	80209	1226298.963406474702	1
0	80248	1227328.847603715649	2
0	80264	1227671.941205196901	1
0	80270	1227789.372775462341	0
0	80405	1229029.401178856155	1
0	80414	1229202.885968970106	2
0	80417	1229589.953490862054	1
0	80438	1230013.755146773347	0
0	80484	1230254.165342800364	1
0	80495	1230381.227453084307	0
0	80794	1235179.080379673145	1
0	80803	1235330.036285371712	0
0	80814	1235355.067613880096	1
0	80825	1235575.560916802995	0
0	80906	1236775.391873977943	1
0	80927	1237061.712335967033	2
0	80950	1237944.66461127106	1
0	80966	1238176.936544914334	2
0	80972	1238187.176883900192	1
0	81048	1239210.432523934511	2
0	81052	1239236.060323968184	1
0	81098	1239665.043867169661	2
0	81111	1240889.762024263426	1
0	81137	1241278.794545647767	2
0	81156	1242194.573256503904	1
0	81169	1242335.136397139769	0
0	81282	1243291.039138983787	1
0	81326	1244434.019191484964	2
0	81327	1244842.148727280933	1
0	81333	1244905.051712527915	0
0	81456	1247673.431269564199	1
0	81466	1248094.783077219509	0
0	81589	1249481.899935162799	1
0	81598	1249612.438920821274	0
0	81642	1249867.534566798045	1
0	81665	1250058.902614335443	2
0	81699	1250532.824421914757	3
0	81700	1250788.395240362657	2
0	81738	1251431.135513210411	1
0	81779	1251908.589877725077	0
0	81795	1251993.125754445098	1
0	81801	1252072.050554991331	0
0	81850	1252287.545300203674	1
0	81865	1253031.53281850572	0
0	82014	1254738.215482141349	1
0	82027	1254851.971826612482	2
0	82041	1255168.751442418805	3
0	82042	1257072.774952387619	2
0	82068	1257701.509330964026	1
0	82124	1258272.740525762011	2
0	82125	1258412.924100548001	1
0	82128	1258592.190382634099	0
0	82219	1259303.256513884144	1
0	82248	1259664.220768162908	2
0	82269	1260112.560388954153	3
0	82270	1261486.12412622204	2
0	82276	1261565.827981763496	1
0	82307	1261818.96880461242	0
0	82440	1262649.708596885966	1
0	82456	1262854.653375095839	0
0	82477	1262990.766524693889	1
0	82485	1263199.969030443672	0
0	82616	1264188.54538930974	1
0	82629	1264626.046750899065	0
0	82650	1264914.978301760117	1
0	82656	1265085.725852879945	0
0	82875	1267098.440606289851	1
0	82877	1267167.830281710583	2
0	82888	1267579.871480586705	1
0	82899	1267653.993148400736	2
0	82935	1268530.426601599215	1
0	82944	1268584.907122891425	0
0	83186	1270653.892516734205	1
0	83207	1271021.547518992387	2
0	83208	1271270.231044658464	1
0	83256	1272461.254829478893	0
0	83272	1272642.427763727715	1
0	83273	1272686.060725733114	0
0	83346	1273587.971668691862	1
0	83347	1273718.878701269579	0
0	83506	1275026.33892549884	1
0	83521	1275255.725113583668	2
0	83523	1275301.982953480917	3
0	83524	1276215.812528275703	2
0	83527	1276297.234494858513	1
0	83606	1277796.596641932795	2
0	83607	1277832.275403060402	1
0	83663	1278851.743747037053	2
0	83664	1279053.175319808465	1
0	83669	1279152.194150864925	0
0	83728	1279523.298292747006	1
0	83746	1279803.607213332007	0
0	83916	1283939.537319439207	1
0	83973	1284763.975774024604	2
0	83978	1285011.806987882053	1
0	83982	1285022.193357812315	2
0	83986	1285145.848850681867	1
0	83991	1285172.287701364362	0
0	84279	1288709.501598374175	1
0	84290	1288905.963197272698	2
0	84291	1289233.580486443268	1
0	84294	1289335.770900041916	0
0	84657	1294233.320887521703	1
0	84666	1295054.9022212166	0
0	84734	1295704.982122236831	1
0	84736	1295740.204208090992	2
0	84777	1296877.46400175644	3
0	84778	1297166.009356193336	2
0	84791	1297220.75334921724	1
0	84825	1297502.861026202216	0
0	84942	1299604.071510746533	1
0	84974	1300495.672687606855	2
0	84975	1300513.448775810439	1
0	85000	1301069.77856684194	0
0	85245	1304362.371430300242	1
0	85251	1304472.54046373851	0
0	85265	1304521.638549636288	1
0	85316	1305507.224137040989	2
0	85317	1306146.584857851946	1
0	85378	1307053.476226477293	2
0	85389	1307224.34101349639	1
0	85415	1307410.387365915022	2
0	85431	1307799.923792379922	1
0	85479	1308567.160381082595	0
0	85490	1308647.875642293265	1
0	85509	1309036.173948599139	0
0	85626	1310280.499615623997	1
0	85643	1310654.695878690054	0
0	85694	1310918.667237522319	1
0	85702	1311051.183122832875	0
0	85745	1311368.889729685191	1
0	85764	1311656.428985939401	2
0	85788	1312693.12153477488	1
0	85809	1312919.072132456624	2
0	85815	1313019.278341971161	1
0	85855	1314393.282601706867	0
0	85958	1315154.201627275434	1
0	85989	1315704.831556213826	0
0	86023	1315896.788420858499	1
0	86024	1315921.763130488662	0
0	86222	1319631.885402518423	1
0	86228	1319772.284681370114	2
0	86241	1320274.263942423612	1
0	86265	1320693.15836419039	2
0	86291	1321716.066943788505	1
0	86342	1322134.835804412242	2
0	86373	1322980.950073156941	3
0	86374	1323462.156728663948	2
0	86400	1325283.782265061619	1
0	86425	1325936.469714197521	0
0	86568	1327473.49491419326	1
0	86570	1327481.357642105497	2
0	86588	1327963.043381831603	1
0	86614	1328347.117167860633	2
0	86658	1329948.181292003883	3
0	86659	1330296.302944954919	2
0	86715	1331591.933922413969	3
0	86716	1331710.619387530096	2
0	86742	1332385.743698912299	1
0	86782	1333189.057490761049	0
0	86893	1333975.64427813411	1
0	86899	1334047.24592257463	0
0	86937	1334311.428978326279	1
0	86938	1334863.534142205576	0
0	87059	1336604.112686721463	1
0	87079	1336842.321339242255	0
0	87279	1338732.946996917462	1
0	87318	1339216.901140337215	0
0	87336	1339330.122124972267	1
0	87340	1339361.94181602971	0
0	87358	1339476.176291722533	1
0	87370	1339555.777513762986	0
0	87473	1340972.043388685595	1
0	87489	1341207.808465722759	2
0	87495	1341471.180593613828	1
0	87516	1341676.533545811707	0
0	87544	1341835.772113866648	1
0	87548	1341920.015594912139	0
0	87681	1343619.269020583543	1
0	87687	1343701.839516455109	0
0	87725	1344062.345851870109	1
0	87767	1344703.619897649662	2
0	87768	1345086.880175913025	1
0	87793	1346315.065576718775	0
0	87969	1348493.772800192546	1
0	87992	1348788.809955509664	2
0	87996	1348889.735568567705	1
0	88021	1349423.105926838314	0
0	88254	1352491.75037424994	1
0	88277	1352777.479360953176	0
0	88340	1353177.986919764723	1
0	88341	1353219.126034074841	0
0	88476	1354704.778874814504	1
0	88487	1354900.058048976359	0
0	88573	1355573.83294350985	1
0	88574	1355588.075579520833	0
0	88704	1357330.246316862095	1
0	88736	1358247.609815721016	2
0	88762	1359619.46009383306	1
0	88770	1359645.869165713897	2
0	88794	1360417.67774707479	1
0	88817	1360985.391545769121	0
0	89176	1365552.098195177178	1
0	89177	1365596.255295490325	0
0	89264	1366229.085918314486	1
0	89290	1366579.702553474058	0
0	89525	1369326.251767358256	1
0	89534	1369421.06559321759	2
0	89535	1369705.341834101504	1
0	89538	1369791.437118328067	0
0	89751	1372212.604361229316	1
0	89762	1372467.050277981376	2
0	89763	1372483.623214670899	1
0	89811	1374087.297853656071	0
0	89825	1374291.813940226787	1
0	89868	1375403.591060222689	0
0	89882	1375543.466734405221	1
0	89890	1375675.898722346724	0
0	89958	1376332.304255093912	1
0	89959	1377578.000842839576	0
0	90090	1379276.021656172063	1
0	90091	1379285.97419093816	0
0	90246	1380588.825514847091	1
0	90275	1381128.246097302938	2
0	90283	1382430.618762283366	1
0	90354	1383314.879254867522	2
0	90358	1383418.942689294163	1
0	90365	1383426.64511473294	0
0	90372	1383454.481453153315	1
0	90373	1383460.021372706038	0
0	90471	1384733.717842733463	1
0	90472	1385129.031320277301	0
0	90645	1387406.792266081456	1
0	90659	1387592.034344226226	0
0	90687	1387941.816687945643	1
0	90693	1388054.946573763044	0
0	90772	1388608.882722268231	1
0	90788	1388957.541590624839	2
0	90789	1389199.23191087453	1
0	90814	1389633.92326970475	0
0	90927	1391563.935685627052	1
0	90928	1391726.193271722353	0
0	91057	1393150.146524754672	1
0	91073	1393314.933734986773	2
0	91104	1394109.492716283712	3
0	91105	1394562.402223094817	2
0	91121	1394723.733251383315	1
0	91159	1396365.68380867964	0
0	91230	1397187.479803959827	1
0	91259	1397388.983181446889	2
0	91270	1397523.174279478138	1
0	91286	1397598.869477423102	2
0	91297	1397928.230704602684	1
0	91303	1398018.507233056368	0
0	91440	1399900.520842638013	1
0	91452	1400171.488221446519	0
0	91493	1400633.149535621971	1
0	91496	1400741.58817441492	0
0	91659	1402472.957219686994	1
0	91665	1402544.343426735715	2
0	91669	1402698.995780927621	1
0	91672	1402746.421166874078	0
0	91847	1405082.522393730622	1
0	91896	1405837.160454940914	2
0	91902	1405913.585063481551	3
0	91903	1406675.173403699139	2
0	91914	1406848.957854807957	1
0	91945	1407308.901751075268	0
0	92010	1407723.017745885786	1
0	92042	1408310.213675774878	0
0	92077	1408500.760849159515	1
0	92099	1408722.773572599096	2
0	92100	1408917.348138354531	1
0	92118	1409464.37170541532	0
0	92192	1410351.68257144061	1
0	92193	1410374.84103417614	0
0	92238	1410718.044045725349	1
0	92267	1410976.345063539885	2
0	92271	1411606.879941500937	1
0	92327	1412304.616766908845	2
0	92328	1412829.438407972561	1
0	92386	1413760.75926769904	2
0	92415	1414374.585519973476	3
0	92416	1415510.482727565935	2
0	92449	1415974.005217418899	1
0	92470	1416187.23986135278	0
0	92493	1416292.357560904387	1
0	92554	1417504.7164824451	0
0	92841	1421304.104051307252	1
0	92869	1421511.952919982264	2
0	92871	1421513.946277874597	3
0	92872	1421976.644474322436	2
0	92875	1421985.567073151199	1
0	92913	1422912.161667112551	0
0	93121	1425177.652146657537	1
0	93129	1425305.384376380907	0
0	93190	1425664.805704636666	1
0	93246	1426807.846932415873	0
0	93272	1426971.387577404865	1
0	93278	1426979.843734049401	2
0	93284	1427070.561248512461	1
0	93340	1428135.345903813091	0
0	93435	1428798.927912316369	1
0	93487	1429684.050465180981	2
0	93498	1429791.989210273154	3
0	93499	1430396.156837464208	2
0	93525	1431040.669475961253	1
0	93550	1431638.612549316375	0
0	93743	1434393.611087994922	1
0	93747	1434403.339461177649	0
0	93773	1434664.17152785134	1
0	93778	1435265.520317733817	0
0	93891	1436626.131815811826	1
0	93952	1437813.363300768752	2
0	93954	1437922.899236140036	3
0	93955	1439535.676029652022	2
0	93973	1439898.621571657947	1
0	94037	1440454.19619120766	2
0	94038	1440651.512978964281	1
0	94071	1441019.473218356047	0
0	94105	1441331.61174070598	1
0	94111	1441453.777898249605	0
0	94233	1445270.545449940992	1
0	94237	1445569.078015621432	0
0	94347	1446551.672820060511	1
0	94408	1447258.357373141486	2
0	94409	1447297.649166668943	1
0	94423	1447455.146296966914	2
0	94444	1448879.794140369317	1
0	94465	1449106.993614247127	0
0	94689	1451377.418625525718	1
0	94695	1451466.875696453973	0
0	94716	1451546.555055724111	1
0	94747	1452061.357232606451	0
0	94935	1454813.206232218944	1
0	94949	1455153.339983827214	2
0	94950	1456042.643248698632	1
0	95001	1456671.748711512994	2
0	95037	1458183.533621208131	3
0	95038	1459568.391706373052	2
0	95059	1459777.690807304809	1
0	95079	1460035.228753191839	0
0	95136	1460559.286450698933	1
0	95162	1461063.802073659836	0
0	95198	1461437.09390231969	1
0	95204	1461513.338327615372	0
0	95403	1463191.443741289543	1
0	95422	1463335.664911587599	2
0	95436	1463708.403232225818	3
0	95437	1463970.951459908224	2
0	95492	1464963.798861643605	1
0	95496	1464971.827020747542	2
0	95517	1465196.195905598351	1
0	95520	1465205.059812195403	0
0	95886	1471020.907789883811	1
0	95913	1471755.713018978887	0
0	96114	1474795.340820867078	1
0	96115	1474821.772661705154	0
0	96261	1476266.127758259895	1
0	96280	1476449.53197511106	2
0	96291	1476849.257017560414	3
0	96292	1477008.074234603241	2
0	96298	1477157.146016920746	1
0	96351	1479723.997742411279	0
0	96405	1480407.656601263482	1
0	96433	1480914.123560511358	2
0	96462	1481456.038290007657	3
0	96463	1482222.87544783683	2
0	96471	1482436.707324370248	1
0	96490	1482601.086502474157	0
0	96729	1486413.885894917587	1
0	96740	1486610.529064773534	0
0	96811	1487306.716940852833	1
0	96840	1487801.992446644243	2
0	96846	1487936.959355997849	1
0	96882	1488300.67732245228	2
0	96888	1488713.452093525494	1
0	96909	1489334.049654415119	0
0	97083	1493042.587592121637	1
0	97084	1493124.692874441465	0
0	97223	1494307.904491361454	1
0	97229	1494403.038540034604	2
0	97260	1496246.513474748597	3
0	97261	1496328.614997869143	2
0	97267	1496529.437672319945	1
0	97310	1497086.907177553591	0
0	97461	1498238.256564549066	1
0	97467	1498264.953965242931	2
0	97478	1498466.684186594315	1
0	97486	1498623.79794606628	0
0	97596	1499446.153019718052	1
0	97628	1500321.513026602323	2
0	97634	1500659.994185429142	1
0	97652	1500869.939360341329	0
0	97840	1502891.963224948636	1
0	97876	1503377.873186832829	2
0	97886	1503613.049907931577	1
0	97890	1503722.796834732148	2
0	97911	1504131.902525608009	1
0	97930	1504311.924082937961	0
0	98223	1507865.375911951142	1
0	98224	1508527.701558798946	0
0	98524	1512029.238986725755	1
0	98541	1512240.491803114754	0
0	98545	1512280.658186693842	1
0	98546	1512311.45617750361	0
0	98846	1516143.988484949016	1
0	98851	1516538.818748277739	0
0	99094	1519492.734319275433	1
0	99126	1519945.222565587365	0
0	99138	1520091.437283480124	1
0	99164	1520332.717103407988	2
0	99168	1521421.469086832778	1
0	99239	1522496.473321923085	2
0	99255	1522738.674247233676	3
0	99256	1523580.519682936116	2
0	99312	1525061.149972062755	3
0	99313	1525630.635478358083	2
0	99329	1526138.20711654915	1
0	99364	1526881.714438136427	0
0	99477	1528070.369112948643	1
0	99478	1528649.319438997593	0
0	99681	1531421.446844196105	1
0	99695	1531697.135741801859	2
0	99698	1531794.603519618302	1
0	99737	1532092.523971144033	2
0	99738	1532157.458049600829	1
0	99779	1533070.57497317335	0
0	99807	1533276.859968678533	1
0	99846	1534374.138478988491	0
0	99874	1534569.739760607016	1
0	99900	1535050.214498562939	0
0	99934	1535312.470099143838	1
0	99975	1535755.488118784654	2
0	99976	1535768.393409037445	1
0	100014	1536144.808067720954	2
0	100023	1536454.611821439242	1
0	100079	1537179.03128611321	2
0	100110	1537781.863963832339	3
0	100111	1540214.513986401692	2
0	100114	1540226.547327776212	1
0	100130	1540381.237066804527	0
0	100218	1541546.023741724091	1
0	100222	1541970.753106230001	0
0	100275	1542326.203445031801	1
0	100307	1542728.9073641023	2
0	100308	1542983.619460202674	1
0	100314	1543023.504529624307	0
0	100533	1545050.84457597922	1
0	100535	1545078.500696152485	2
0	100548	1545855.351721094453	1
0	100587	1546043.746200527307	2
0	100600	1546142.12427215959	1
0	100606	1546166.751386633801	0
0	100640	1546416.097253186534	1
0	100680	1547344.315598980751	0
0	100744	1547744.359990843832	1
0	100773	1548074.065384405071	2
0	100776	1548308.955529354412	1
0	100820	1548864.364823005961	2
0	100821	1548928.08739984547	1
0	100864	1549399.63448650662	2
0	100878	1549855.424696344404	1
0	100921	1550612.539923468984	0
0	100947	1550905.140635890211	1
0	101013	1552064.307316496109	2
0	101022	1552105.958353245488	3
0	101023	1552189.547651563069	2
0	101031	1552472.99041362779	1
0	101064	1552832.037410467872	0
0	101190	1555298.527954088221	1
0	101241	1555976.348173924332	2
0	101250	1556082.299151870669	3
0	101251	1556447.393256771009	2
0	101307	1557620.020991375413	3
0	101308	1558109.661332491484	2
0	101311	1558120.044039734517	1
0	101359	1559617.020264657239	0
0	101586	1566356.491163700702	1
0	101647	1567483.752386539121	2
0	101648	1567486.272419664887	1
0	101652	1567505.258291278992	2
0	101653	1567552.755080143398	1
0	101753	1568820.545183067326	0
0	101774	1569021.405275323021	1
0	101845	1570170.237200444489	0
0	101859	1570238.83347366381	1
0	101870	1570341.552618123234	0
0	101934	1570887.705911148532	1
0	101964	1571308.177471828018	0
0	102033	1571970.5595680276	1
0	102099	1573166.676124321182	2
0	102100	1573207.343474431363	1
0	102118	1573371.760956416511	2
0	102152	1575096.793913860597	1
0	102173	1575335.431478811083	2
0	102186	1575847.291021578318	1
0	102210	1576048.122673853963	0
0	102327	1577189.52180011266	1
0	102379	1577759.274691578662	2
0	102390	1578063.258560327914	3
0	102391	1578930.755989328795	2
0	102409	1579168.403870784379	1
0	102470	1580196.829594735618	0
0	102483	1580263.043450080241	1
0	102530	1581310.756988530536	2
0	102531	1581659.311568734649	1
0	102549	1581977.92018175027	0
0	102739	1585208.73500876351	1
0	102773	1585534.565864037637	2
0	102779	1585663.956068397945	1
0	102782	1585679.534390900676	0
0	102992	1589733.47714073602	1
0	103003	1589808.203475583969	2
0	103017	1590405.027254784683	3
0	103018	1590760.993749887421	2
0	103069	1591579.355379748754	1
0	103077	1591608.580385602796	2
0	103086	1591803.02999204799	1
0	103109	1592372.242650108001	0
0	103239	1593535.623140762446	1
0	103256	1594332.777564268539	0
0	103433	1597130.103296572772	1
0	103442	1597168.459150876733	2
0	103443	1597238.392743829523	1
0	103461	1597533.625228901481	0
0	103654	1601635.270493365271	1
0	103670	1602212.919749956187	2
0	103688	1602943.426863157148	1
0	103707	1603137.986834480478	2
0	103718	1603380.008001007935	1
0	103753	1604109.983963403482	0
0	103933	1605461.658594626394	1
0	103955	1605693.266749938448	2
0	103978	1606093.390116525593	1
0	103994	1606217.993501648514	2
0	104003	1606382.292613110607	1
0	104019	1606555.709898656674	0
0	104110	1607780.598360546091	1
0	104116	1607932.962833305494	0
0	104271	1609218.311452920469	1
0	104281	1609577.342024319694	0
0	104357	1610178.773563020505	1
0	104388	1610684.582763271748	0
0	104432	1611010.346461364301	1
0	104488	1611987.469099155988	2
0	104499	1612236.539355100584	3
0	104500	1612595.292143642601	2
0	104521	1613132.416242322527	1
0	104529	1613459.169621294398	0
0	104737	1615333.55247789668	1
0	104753	1615636.063972971959	2
0	104759	1616022.99800855067	1
0	104810	1616837.754440109011	2
0	104841	1617301.41688959939	3
0	104842	1617877.239316785667	2
0	104845	1617902.625293482212	1
0	104859	1618165.317316014532	0
1	0	0	0
1	1943	33087.087334517885	1
1	1954	33261.478697801641	0
1	3449	56007.652660148817	1
1	3450	56060.71796730702	0
1	3832	60486.23234222335	1
1	3847	60661.326271820746	0
1	4610	72831.711031201436	1
1	4613	72850.951822374161	0
1	4865	75631.223449096111	1
1	4866	75632.822718968728	0
1	5036	78822.535879019711	1
1	5037	78870.940737225798	0
1	5348	86061.444650723787	1
1	5357	86232.252703045335	0
1	6298	97176.170816034773	1
1	6309	97307.755161876536	0
1	7204	113495.707504553931	1
1	7205	113506.665648038251	0
1	11144	173942.447842318415	1
1	11145	173943.75842798415	0
1	11390	178470.392553180755	1
1	11391	178500.935721249341	0
1	11569	180658.269348779311	1
1	11570	180732.031849442062	0
1	13180	206110.497464021172	1
1	13183	206202.81105057363	0
1	14007	220014.899135123614	1
1	14018	220181.202700992647	0
1	17665	288208.159700682883	1
1	17666	288272.760879952118	0
1	17886	291063.600615357354	1
1	17887	291077.498931612621	0
1	18778	306075.729252649971	1
1	18779	306086.287075609587	0
1	19580	315752.032072903103	1
1	19581	315864.411990008146	0
1	22114	351410.670832309861	1
1	22115	351412.484669282471	0
1	24097	384464.77023729329	1
1	24098	384483.883617775339	0
1	24721	391693.661661293605	1
1	24722	391701.582030548859	0
1	27674	436683.521274102537	1
1	27675	436712.229123597838	0
1	27781	437986.05139881542	1
1	27782	438012.615856387448	0
1	28701	454525.601878684675	1
1	28712	454667.180612924132	0
1	29612	467779.575640110928	1
1	29613	467904.981507033955	0
1	29829	469846.040342459627	1
1	29832	469905.508617375064	0
1	32121	497861.9213371387	1
1	32135	497915.977178774126	2
1	32136	497942.818226035446	1
1	32141	497981.719485652943	0
1	34799	540457.976834624316	1
1	34800	540467.527222433947	0
1	35306	549738.491363526154	1
1	35313	549790.57076495585	0
1	36877	571775.314959410893	1
1	36878	571784.037298821194	0
1	36894	571909.04734250623	1
1	36895	571909.726613338948	0
1	38508	596192.918638390952	1
1	38509	596225.777560990975	0
1	38783	599438.117890929845	1
1	38784	599528.133098347526	0
1	41581	645180.238943478932	1
1	41582	645203.220821431313	0
1	42339	657348.714851059742	1
1	42342	657375.894559001917	0
1	42663	661560.191770451733	1
1	42664	661588.026102228669	0
1	44037	680646.984839685272	1
1	44038	680650.708481420765	0
1	45714	705532.278909556896	1
1	45715	705542.65358020695	0
1	45732	705619.827439504647	1
1	45733	705619.959293096689	0
1	46322	712858.721104088527	1
1	46323	712865.805616871523	0
1	46453	715162.190745894866	1
1	46454	715245.646542078974	0
1	47498	732461.338092037292	1
1	47502	732486.554814155689	0
1	48825	752192.682196616335	1
1	48826	752259.112614798471	0
1	50354	771684.620381797917	1
1	50355	771697.334685103177	0
1	52002	797377.86719768901	1
1	52003	797389.183914774072	0
1	52463	801904.19057093449	1
1	52464	801907.996390148331	0
1	53089	810425.682648591758	1
1	53090	810426.613492815763	0
1	53699	820337.278821495689	1
1	53703	820473.303004642266	0
1	54279	829144.840282498303	1
1	54280	829167.317214162264	0
1	56160	854161.614638349968	1
1	56166	854347.083922857892	0
1	57086	867916.096052762314	1
1	57087	867954.908565909866	0
1	57367	870486.213021665551	1
1	57371	870532.437531621683	0
1	57568	873547.668963946418	1
1	57569	873568.82270931862	0
1	61589	941583.993937186553	1
1	61594	941611.947681654638	2
1	61595	941647.632155673699	1
1	61603	941696.421323198231	0
1	62380	956122.13759721689	1
1	62381	956139.580536681816	0
1	63226	969445.373542718677	1
1	63229	969481.89234003997	0
1	64123	982351.7708356863	1
1	64124	982366.407109609153	0
1	66883	1026868.557992420377	1
1	66884	1026914.578282745994	0
1	67493	1034258.220226852671	1
1	67499	1034309.806275640629	0
1	68023	1041392.316890452691	1
1	68024	1041472.821687313209	0
1	68365	1047302.606761397626	1
1	68366	1047387.481238693198	0
1	69042	1053530.954141270539	1
1	69043	1053603.848561113222	0
1	69505	1059295.094509834941	1
1	69506	1059321.388902997204	0
1	69840	1064965.916639786386	1
1	69844	1064995.755864447064	0
1	70715	1076761.711193630719	1
1	70716	1076796.491654550441	0
1	71875	1092658.543535931337	1
1	71876	1092677.458977128638	0
1	72603	1105216.836931735597	1
1	72604	1105231.867766264175	0
1	73208	1112425.622800230549	1
1	73209	1112449.729109749137	0
1	74279	1131439.940489945756	1
1	74280	1131488.500417763403	0
1	74774	1137661.899607947195	1
1	74780	1137763.052545350799	0
1	75196	1141785.657056293241	1
1	75197	1141806.975662431573	0
1	77290	1174557.002021265374	1
1	77291	1174627.578137766683	0
1	79316	1214978.190057430602	1
1	79317	1215008.360152585906	0
1	80274	1227794.039529564227	1
1	80278	1227843.652052766714	2
1	80279	1227844.351182842649	1
1	80301	1227961.731768166834	0
1	81337	1245044.250571229016	1
1	81338	1245162.943872525936	0
1	81805	1252074.482817937522	1
1	81811	1252116.254748607244	0
1	82970	1268815.556466894657	1
1	82971	1268844.418191170586	0
1	83534	1276319.202814078351	1
1	83535	1276519.797015748072	0
1	83990	1285171.121021033007	1
1	83994	1285263.083418743889	0
1	84301	1289412.557483305744	1
1	84302	1289439.943719881071	0
1	85520	1309103.222223013006	1
1	85521	1309105.202107524456	0
1	88348	1353304.597821823576	1
1	88349	1353354.601830238139	0
1	89545	1369817.288828942004	1
1	89546	1369834.552048527149	0
1	91681	1402785.977349876057	1
1	91683	1402828.470877083692	2
1	91691	1402996.799469946656	1
1	91694	1402996.890104258025	0
1	91703	1403069.321394151061	1
1	91704	1403072.780364970493	0
1	92474	1416195.404123682831	1
1	92475	1416238.457367662542	0
1	92882	1422107.425586284903	1
1	92883	1422401.42004972582	0
1	92997	1424196.888831000173	1
1	92998	1424226.510250406175	0
1	93150	1425386.189447246515	1
1	93151	1425424.328871405623	0
1	93354	1428197.543459621477	1
1	93355	1428217.090282584313	0
1	93559	1431685.496234194922	1
1	93560	1431703.907647749385	0
1	94251	1445717.093110215705	1
1	94252	1445718.942756429623	0
1	94756	1452180.251256365646	1
1	94757	1452211.481180455722	0
1	95215	1461550.711307384356	1
1	95221	1461645.104377324093	0
1	95530	1465322.842094976887	1
1	95533	1465332.09419935432	0
1	96302	1477195.168416586157	1
1	96303	1477200.610755981313	0
1	97499	1498646.173993969178	1
1	97503	1498679.435188327117	0
1	97510	1498703.385966227651	1
1	97511	1498703.691541430758	0
1	97673	1500995.524627289368	1
1	97674	1501046.128693711642	0
1	98553	1512363.880774611873	1
1	98554	1512493.441279923921	0
1	100121	1540253.645615990428	1
1	100122	1540335.65923291291	0
1	100137	1540396.245883946948	1
1	100138	1540401.727350889732	0
1	100318	1543075.334132967521	1
1	100324	1543202.981817595976	2
1	100325	1543210.428957302453	1
1	100328	1543225.033289213031	0
1	101769	1568989.976726335468	1
1	101775	1569050.110819473176	0
1	101983	1571390.66856482501	1
1	101989	1571480.520632820609	0
1	102789	1585692.885706699087	1
1	102795	1585720.571359845906	2
1	102806	1585823.376548840705	1
1	102809	1586027.130290608198	0
1	103477	1597727.046843842637	1
1	103481	1597810.181691583851	0
1	104852	1617988.518740004172	1
1	104853	1618006.426019370226	0
2	0	0	0
2	102	3785.27804322721	1
2	103	3786.744442921222	0
2	692	14052.962726543908	1
2	693	14056.070701581732	0
2	1514	29157.720041102829	1
2	1521	29184.781956254002	0
2	1978	33445.863211168757	1
2	1979	33539.942124683473	0
2	3217	53323.341016129606	1
2	3223	53423.940702071953	0
2	3459	56177.310000686615	1
2	3460	56227.554882096143	0
2	3858	60735.989514443493	1
2	3859	60800.68488545111	0
2	4719	74017.044033489003	1
2	4735	74202.869680449816	0
2	4875	75658.457575947042	1
2	4883	75727.169106594833	0
2	5589	88206.676855260666	1
2	5600	88282.961711647428	0
2	5919	93311.337141332286	1
2	5922	93324.037108489781	0
2	6323	97592.979767432767	1
2	6324	97596.684853888593	0
2	7363	114927.092582698986	1
2	7379	115274.169647683266	0
2	8240	129079.042466910927	1
2	8241	129134.135828511342	0
2	9779	153470.656678911612	1
2	9780	153523.064691140414	0
2	9953	156461.395824793688	1
2	9957	156548.598138836224	0
2	10362	162504.009265685647	1
2	10366	162572.446107576386	2
2	10367	162573.265074380311	1
2	10370	162590.567659865825	0
2	11789	184208.918524304896	1
2	11790	184226.956021460377	0
2	12548	196657.358240373078	1
2	12549	196748.697391422312	0
2	14030	220303.485571774505	1
2	14036	220459.833161178849	0
2	15137	243763.525401558055	1
2	15138	243799.844280537438	0
2	15702	253398.021491615067	1
2	15703	253411.892202226414	0
2	15720	253477.778613028093	1
2	15728	253541.507214747245	0
2	17903	291185.425408458951	1
2	17909	291233.149778660143	0
2	18146	294350.013848317945	1
2	18150	294429.539453009313	0
2	20015	320920.676327182249	1
2	20016	320926.51562521177	0
2	20342	325159.070655031095	1
2	20355	325257.067034842475	0
2	20585	329553.522205335414	1
2	20586	329599.340548648568	0
2	21383	339994.852699747382	1
2	21384	340061.144314166117	0
2	23321	368531.40967902046	1
2	23324	368553.639193432789	0
2	24257	387137.19539415045	1
2	24258	387198.676853336956	0
2	25087	396004.307653526031	1
2	25088	396040.332104248032	0
2	26510	418099.254137938842	1
2	26524	418238.536338569786	0
2	27791	438127.364026697834	1
2	27792	438189.86889906776	0
2	28451	450042.46471480646	1
2	28452	450102.659600529594	0
2	28726	454719.568412734907	1
2	28727	454747.651120811981	0
2	29657	468225.961930042734	1
2	29658	468269.995024407374	0
2	31415	490017.537418151241	1
2	31416	490062.098332507874	0
2	32150	497991.637386597726	1
2	32151	498004.275581451828	0
2	32158	498019.08688189679	1
2	32159	498036.737012107768	0
2	33783	522915.313408367977	1
2	33787	522949.519118212301	0
2	35345	550100.175211426345	1
2	35348	550141.918432565664	0
2	36577	567341.184630546374	1
2	36578	567408.299683812758	0
2	36904	571999.270583317464	1
2	36905	572020.416051273592	0
2	37742	584597.726402958081	1
2	37743	584711.946925821945	0
2	38255	592098.937037067726	1
2	38256	592152.451473771565	0
2	38963	601655.485454190451	1
2	38964	601690.307349131819	0
2	41357	642026.068463713613	1
2	41359	642036.088290940763	2
2	41363	642084.402750107919	1
2	41383	642170.483172156492	0
2	41829	649574.015172759144	1
2	41830	649627.02659081236	0
2	45737	705630.967142556279	1
2	45740	705650.49566414267	0
2	46465	715327.217028914496	1
2	46471	715433.779176127983	0
2	46478	715499.038012160073	1
2	46481	715603.753985073678	0
2	47524	732640.692993326713	1
2	47525	732657.551824594206	0
2	47828	738370.494626609024	1
2	47829	738371.032113358168	0
2	48339	746138.368146953641	1
2	48342	746160.228194022651	0
2	48847	752406.390625074897	1
2	48851	752551.908206587354	0
2	52479	802049.735483600309	1
2	52480	802092.11717247276	0
2	52936	808540.16457793366	1
2	52945	808582.271160860895	0
2	53099	810534.958406535295	1
2	53103	810671.84671699691	0
2	53717	820559.446918971974	1
2	53723	820625.478647383954	0
2	54289	829198.396300957701	1
2	54290	829218.638193707991	0
2	57595	873715.745790127855	1
2	57604	873799.529549385006	0
2	59940	909532.214229195004	1
2	59945	909653.023325594627	0
2	60477	921320.22778836378	1
[...]
11	80207	1226273.599879488818	1224850.2745693
11	80243	1227269.766176764183	1225021.8903141
11	80300	1227947.03436342474	1227278.4997796
11	80393	1228909.048140374926	1226710.2153998
11	80412	1229072.941073687867	1226825.0652111
11	80482	1230227.241832778645	1228803.9165226
11	80573	1231331.140931940324	1229132.3081913
11	80632	1232188.439983104712	1231519.9053993
11	80705	1234583.15441657365	1232335.2785539
11	80764	1235035.890117541517	1233612.5648074
11	80792	1235143.80200111222	1232944.9692605
11	80809	1235338.754137135008	1234670.2195533
11	80896	1236682.199258600534	1234434.323396
11	80925	1237042.245770794291	1235618.9204606
11	80964	1238166.924596522405	1235968.0918559
11	81046	1239209.553021706074	1238541.0184379
11	81096	1239573.953103743895	1237326.0772411
11	81135	1241261.983539403376	1239838.6582292
11	81270	1243167.09001560478	1240968.257275
11	81280	1243266.328383612069	1242597.7937998
11	81324	1244386.139337326561	1242962.8140272
11	81437	1247561.449895311504	1245313.5740327
11	81449	1247587.353800959142	1246918.8192171
11	81556	1249089.883516024919	1246891.0507754
11	81583	1249407.040404800491	1247983.7150946
11	81637	1249837.329648604757	1247589.453786
11	81663	1250053.313214460046	1249384.7786306
11	81697	1250512.287801785805	1248313.4550612
11	81793	1251980.795072295475	1250557.4697621
11	81848	1252279.019589507061	1250031.1437269
11	81924	1253997.971559472775	1251799.1388189
11	82009	1254729.663414772185	1253306.3381046
11	82025	1254808.098824407247	1254139.5642406
11	82039	1255153.515298285489	1252905.6394357
11	82122	1258263.672463174869	1256064.8397226
11	82217	1259282.282569874453	1257858.9572597
11	82246	1259644.671213182505	1258976.1366293
11	82267	1259958.462832857246	1257710.5869702
11	82413	1262352.994815316568	1260929.6695052
11	82435	1262623.205282467342	1260424.3725419
11	82472	1262963.358860662344	1260715.482998
11	82588	1263868.297214077183	1263199.7626302
11	82611	1264158.77871887455	1262735.4534087
11	82643	1264737.199173676278	1262489.323311
11	82737	1265764.783367183563	1263565.9506266
11	82819	1266614.486209826403	1265945.951626
11	82869	1267051.947127176436	1264804.0712645
11	82873	1267068.146827050251	1265644.8215169
11	82897	1267607.745944221538	1265408.9132036
11	83010	1269041.993010252741	1268373.4584264
11	83055	1269604.471664020447	1268181.1463539
11	83167	1270458.350281312673	1268210.4744187
11	83176	1270580.948769806622	1268382.1160292
11	83205	1270933.975865620917	1270265.4412818
11	83268	1272619.909625598881	1271196.5843154
11	83342	1273413.686213710312	1271165.8103511
11	83484	1274847.621054884204	1272599.7451922
11	83504	1275009.541960121508	1272810.7092195
11	83512	1275087.82202063465	1274419.2874368
11	83519	1275204.989743998948	1273781.6644338
11	83604	1277786.468596296073	1275587.6358557
11	83661	1278781.009390627749	1276533.133528
11	83726	1279522.932505443898	1278854.3979216
11	83824	1281063.536558197436	1279640.211248
11	83881	1283157.125677643662	1280958.292937
11	83914	1283919.623724698762	1281671.7478621
11	83961	1284662.873460508565	1283994.3388767
11	83977	1284866.835062364609	1283443.5097522
11	84109	1286767.203810456459	1286098.6692266
11	84166	1287671.764704012017	1285472.9319634
11	84260	1288483.721106997535	1286235.8452444
11	84277	1288642.077650927825	1287218.7523408
11	84288	1288850.26195638002	1288181.7273725
11	84431	1291088.621879575743	1288889.789139
11	84448	1291452.919219927524	1289205.0433573
11	84477	1291845.287717950168	1290421.9624078
11	84558	1292655.665183328302	1291987.1305995
11	84648	1294153.96716304285	1291955.1344224
11	84652	1294157.46318295509	1291909.5873203
11	84725	1295641.109516202515	1294972.5749324
11	84732	1295679.414835654788	1294256.0895255
11	84775	1296837.086857373518	1294589.2109947
11	84933	1299498.044586240467	1298829.5100024
11	84937	1299511.976332102739	1297313.1435915
11	84972	1300461.298460588078	1299037.9731504
11	85074	1301633.985361555895	1299386.1094989
11	85135	1302920.37233114373	1300721.5395905
11	85210	1304096.596022116523	1303428.0614383
11	85243	1304271.805609159147	1302848.480299
11	85260	1304485.117234127746	1302237.2413715
11	85314	1305452.794239996959	1303253.9614994
11	85376	1307044.827302351398	1306376.2927185
11	85413	1307395.731096605709	1305972.4057864
11	85488	1308626.542928462751	1306378.6670658
11	85617	1310211.042977171587	1309542.5083933
11	85621	1310248.738228874439	1308049.9054883
11	85692	1310894.986196297562	1309471.6608861
11	85721	1311220.269265061185	1308972.3934024
11	85762	1311542.287793781347	1309343.4550532
11	85807	1312890.273853194824	1312221.7392694
11	85942	1314977.127168236893	1313553.8018581
11	85954	1315021.233416371586	1312773.3575537
11	86021	1315891.478315767693	1313692.6455752
11	86080	1316386.248223126789	1315717.7136393
11	86177	1318987.384949691377	1316739.5090871
11	86215	1319518.876352831665	1318095.5510427
11	86226	1319681.787188783155	1317482.9544482
11	86263	1320636.291531470507	1319967.7569476
11	86337	1322098.136884724311	1319850.2610221
11	86371	1322860.286951456932	1321436.9616413
11	86544	1327366.886820069778	1326698.3522362
11	86559	1327431.941449599171	1325233.108709
11	86566	1327465.445101873731	1325217.5692392
11	86612	1328281.619269358422	1326858.2939592
11	86656	1329921.780494266451	1327722.9477537
11	86713	1331540.917634223799	1329293.0417716
11	86864	1333647.69183122649	1332224.3665211
11	86886	1333819.239641919745	1333150.7050581
11	86935	1334306.768833862411	1332058.8929712
11	87037	1336490.466125834531	1335067.1408157
11	87044	1336520.269155888525	1334321.4364153
11	87076	1336801.817696853879	1336133.283113
11	87174	1337426.658854212309	1335178.7829916
11	87270	1338446.94245225051	1336248.1097117
11	87277	1338699.179904966046	1337275.8545948
11	87332	1339312.221773997948	1338643.6871902
11	87356	1339470.071215094912	1337222.1953525
11	87471	1340965.937995604835	1339542.6126854
11	87487	1341179.761423025354	1338980.9286824
11	87540	1341801.023801720617	1341132.4892179
11	87643	1342990.683369693791	1340742.8075071
11	87679	1343581.777551476146	1342158.4522413
11	87719	1344034.664155514137	1343366.1295717
11	87765	1344612.922575516362	1342414.0898349
11	87871	1347571.816743067234	1345323.9408804
11	87944	1348272.26284254967	1347603.7282587
11	87967	1348486.141265211186	1347062.815955
11	87985	1348708.597690839329	1346509.7649502
11	88088	1350110.782509591204	1347862.906647
11	88135	1350384.596286707293	1349716.0617029
11	88239	1352395.087987174989	1350971.762677
11	88243	1352421.23877860351	1350222.406038
11	88331	1353164.887383587646	1350917.011521
11	88338	1353175.324786976125	1352506.7902031
11	88454	1354406.033637051789	1352207.2008965
11	88474	1354677.524998886078	1352429.6491363
11	88554	1355336.749641585943	1353913.4243314
11	88571	1355555.87040645104	1354887.3358226
11	88675	1356939.169376117082	1354740.3366355
11	88702	1357285.260684192978	1355037.3848216
11	88734	1358110.21746492962	1356686.8921548
11	88768	1359633.822455873898	1358965.287872
11	88901	1361800.114125410547	1359601.2813848
11	88943	1362166.401367417192	1359918.5255048
11	88990	1362497.010008388865	1361073.6846982
11	89068	1363967.31393296929	1363298.7793491
11	89136	1364901.801517337568	1362702.9687767
11	89158	1365223.664627903735	1362975.7887653
11	89233	1365908.327769090429	1364485.0024589
11	89250	1366052.179523688553	1365383.6449399
11	89322	1366767.213090041207	1364568.3803494
11	89401	1367494.045549551518	1365246.1696869
11	89516	1369291.983197907591	1367868.6578877
11	89520	1369297.1971059949	1367098.3643654
11	89532	1369410.288167240266	1368741.7535834
11	89638	1371596.741794088904	1369348.8659315
11	89696	1371932.015669477896	1369733.1829289
11	89746	1372191.253760724039	1370767.9284506
11	89760	1372424.654380867163	1371756.119797
11	89823	1374244.712856728984	1371996.8369941
11	89880	1375525.682441682544	1373326.8497011
11	89949	1376260.695125267036	1374837.3698151
11	90037	1378427.501232191087	1376179.6253696
11	90086	1379266.479792391976	1378597.9452086
11	90122	1379603.758106968549	1377404.9253664
11	90199	1380114.116731780938	1378690.7914216
11	90244	1380534.126833610802	1378286.250971
11	90273	1381073.553433989776	1380405.0188502
11	90352	1383296.191328836827	1381097.3585882
11	90364	1383420.787995829562	1381997.4626857
11	90469	1384668.767552879765	1382469.9348123
11	90548	1385678.766346702205	1385010.2317629
11	90633	1387308.018157677194	1385060.142295
11	90640	1387350.759803149458	1385927.434493
11	90685	1387900.86834452283	1385702.0356039
11	90770	1388608.85368016044	1386360.9778175
11	90786	1388777.144375741224	1388108.6097919
11	90910	1391345.904033223351	1389147.0712926
11	90925	1391534.526169539897	1390111.2008594
11	91045	1393060.000711063418	1392391.4661272
11	91055	1393102.032197305779	1390854.1563347
11	91071	1393314.601317408577	1391115.7685768
11	91102	1394069.010423710905	1392645.6851135
11	91223	1397094.34200385442	1394846.4661412
11	91254	1397372.940937252608	1396704.4063534
11	91281	1397592.639353843554	1395393.8066132
11	91421	1399642.997086909621	1398219.6717767
11	91438	1399795.656131089189	1397547.7802685
11	91488	1400624.581325941825	1399956.0467421
11	91642	1402265.687902849166	1400842.3625927
11	91649	1402300.375252788652	1401631.840669
11	91663	1402517.231161733085	1400269.3552991
11	91687	1402839.332217016765	1400640.4994764
11	91818	1404786.879153769169	1402539.0032911
11	91840	1405005.085458241987	1403581.7601481
11	91884	1405746.888786871539	1403548.0560463
11	91900	1405899.053091488571	1405230.5185077
11	92008	1407681.54722551425	1405433.6713629
11	92055	1408361.866813220321	1406163.0340726
11	92094	1408673.392475571054	1407250.0671654
11	92179	1410213.60352760087	1409545.0689438
11	92234	1410700.201299119811	1408452.3254365
11	92265	1410960.09889295119	1408761.2661524
11	92325	1412250.594280842883	1410827.2689707
11	92382	1413747.655006028407	1413079.1204222
11	92413	1414320.768948312093	1412072.8930857
11	92491	1416290.455836243255	1414091.6230956
11	92553	1417356.141439543766	1416687.6068557
11	92657	1418174.047656536706	1416750.7223464
11	92702	1418612.07213306128	1416364.1962704
11	92824	1421188.334290506076	1418989.5015499
11	92839	1421300.003595593756	1420631.4690118
11	92860	1421480.99057559408	1419233.114713
11	92867	1421499.706149006077	1420076.3808388
11	92979	1424000.695695926654	1421801.8629553
11	93079	1424938.739214159422	1424270.2046303
11	93111	1425132.785272698303	1423709.4599625
11	93148	1425363.063289519359	1423164.2305489
11	93183	1425629.011506174422	1423381.1356435
11	93265	1426857.02311812643	1425433.697808
11	93276	1426976.566578580244	1426308.0319947
11	93411	1428531.325852400165	1426283.4499898
11	93433	1428704.022881682994	1426505.1901411
11	93485	1429633.074475221498	1428964.5398914
11	93496	1429774.260954690972	1428350.9356445
11	93652	1433405.990460494286	1431158.1145979
11	93706	1434114.639348564409	1431915.806608
11	93731	1434256.70741480946	1432833.3821046
11	93758	1434514.335987468419	1433845.8014036
11	93879	1436561.93068793493	1434314.0548253
11	93889	1436616.986048546769	1434418.1533079
11	93943	1437709.31230074847	1437040.7777169
11	93950	1437793.5502147355	1436370.2249046
11	94035	1440395.906704470867	1438148.0308418
11	94103	1441294.799851027728	1439095.9671104
11	94204	1444832.794927010488	1443409.4696168
11	94231	1445258.116135432094	1444589.5815516
11	94333	1446387.286986692991	1444139.4111241
11	94345	1446477.456722924191	1444278.6239823
11	94399	1447228.788169239443	1446560.2535854
11	94406	1447252.890579308984	1445829.5652691
11	94523	1449597.929558314067	1447350.0536957
11	94645	1451010.568407991889	1448811.7356674
11	94661	1451116.980690556041	1449693.6553804
11	94687	1451367.367692282053	1450698.8331084
11	94704	1451479.586682542823	1449231.7108199
11	94825	1453372.893431808888	1451949.5681216
11	94906	1454665.916213315213	1452467.0834727
11	94931	1454789.408873583977	1454120.8742897
11	94947	1455095.990607616889	1452848.114745
11	94996	1456536.292280435188	1455112.9669703
11	95035	1458121.736239873789	1455922.9034993
11	95134	1460523.453877263412	1459854.9192934
11	95196	1461340.860227677471	1459092.984365
11	95272	1462090.138740291617	1460666.8134301
11	95336	1462614.141777794763	1460415.3090372
11	95399	1463142.55106589981	1462474.0164821
11	95420	1463312.490930357361	1461064.6150677
11	95434	1463588.891887751553	1462165.5665776
11	95491	1464954.868847738153	1462756.0361071
11	95597	1465992.604892906803	1465324.0703091
11	95680	1467407.024578580375	1465983.6992684
11	95748	1468428.062420538551	1466180.1865579
11	95785	1469071.876166825666	1466873.0434262
11	95872	1470708.322110999332	1470039.7875272
11	95884	1470986.688884692593	1469563.3635745
11	95931	1471832.072387237856	1469584.1965246
11	96018	1472956.586875236667	1470757.7541346
11	96100	1474551.393192348038	1473882.8586085
11	96112	1474785.201093524002	1473361.8757834
11	96201	1475482.351014271969	1473234.4751516
11	96259	1476250.802431235627	1474051.9696906
11	96275	1476369.484280519051	1475700.9496967
11	96289	1476812.417237372887	1475389.0919272
11	96400	1480366.063920526186	1478118.1880579
11	96431	1480889.546357597772	1478690.713617
11	96460	1481395.514233778139	1480726.9796499
11	96592	1484301.243163233007	1482877.9178531
11	96696	1486242.382154732861	1484043.5494141
11	96708	1486270.733167276235	1485602.1985834
11	96727	1486411.658464060867	1484163.7826014
11	96809	1487226.754167724524	1485803.4288576
11	96838	1487769.48071152369	1485570.6479709
11	96880	1488284.972696475293	1487616.4381126
11	96991	1491169.871570027479	1488921.9957074
11	97074	1492821.892173872925	1491398.5668637
11	97081	1492885.952104917258	1490687.1193643
11	97198	1493922.008464219886	1493253.4738804
11	97221	1494306.622690988445	1492883.2973808
11	97227	1494349.203462444623	1492101.3275998
11	97258	1496239.377410019636	1494040.5446694
11	97431	1497906.354469330385	1495707.5217287
11	97459	1498235.921531607869	1496812.5962214
11	97465	1498252.176512922913	1497583.6419291
11	97494	1498640.657229394898	1496392.7813668
11	97594	1499445.129681168581	1498776.5950973
11	97626	1500189.726734738136	1498766.4014246
11	97686	1501070.56745414454	1498871.7347135
11	97828	1502855.997463092321	1500608.1216005
11	97832	1502858.473778784655	1501435.1484686
11	97874	1503357.995427643707	1502689.4608438
11	97885	1503583.997575841601	1501385.1648352
11	97993	1505001.990504669434	1503578.6651945
11	98060	1505482.167627327777	1503234.2917647
11	98131	1506332.231879827331	1505663.697296
11	98164	1507170.615464048526	1504971.7827235
11	98221	1507819.85732750167	1506396.5320173
11	98308	1509671.922351268492	1507424.0464886
11	98380	1510300.100119715225	1509631.5655359
11	98392	1510531.89761961486	1508333.064879
11	98491	1511762.466059822957	1510339.1407497
11	98509	1511956.182785070502	1509708.3069224
11	98540	1512203.98642296415	1511535.4518391
11	98620	1512850.265699062059	1510651.4329585
11	98684	1514114.651091933547	1512691.3257818
11	98766	1515379.074968189565	1514710.5403844
11	98807	1515861.719088121537	1513613.8432255
11	98844	1516072.160353064806	1513873.3276125
11	98942	1517631.292607474263	1516207.9672973
11	98972	1517991.653096120084	1517323.1185123
11	99085	1519396.561381543814	1517148.6855189
11	99092	1519480.213508642382	1517281.380768
11	99120	1519905.375708785545	1518482.0503986
11	99160	1520313.111627994577	1519644.5770442
11	99232	1522466.067433270824	1520218.1915706
11	99253	1522724.722477584302	1520525.889737
11	99310	1525044.322953771862	1523620.9976436
11	99459	1527800.89258904295	1525553.0167264
11	99472	1527959.860604652461	1527291.3260208
11	99569	1529699.322957473409	1527500.4902169
11	99591	1530006.019364537473	1528582.6940544
11	99679	1531404.936809087666	1530736.4022253
11	99693	1531693.566202468564	1529445.6903398
11	99732	1532064.541580443619	1529865.7088398
11	99803	1533223.226271152483	1531799.900961
11	99862	1534476.68519655789	1533808.1506127
11	99924	1535303.453992974382	1533055.5781303
11	99960	1535556.090098885927	1533357.2573583
11	100010	1536045.682056183187	1534622.356746
11	100077	1537170.240773816518	1536501.70619
11	100108	1537772.763699027138	1535524.8878364
11	100214	1541451.474635451174	1539252.6418949
11	100273	1542320.918743219679	1540897.5934331
11	100305	1542717.440987348151	1542048.9064035
11	100434	1544043.34637715563	1541795.4705145
11	100444	1544126.616246919806	1542703.2909368
11	100527	1545023.044260600185	1542824.21152
11	100531	1545030.127984189639	1544361.5934004
11	100582	1546012.6704474113	1543764.7945848
11	100638	1546415.530623910767	1544992.2053137
11	100742	1547736.927516520776	1547068.3929327
11	100771	1548058.820323451732	1545859.9875829
11	100815	1548683.255357723969	1546435.3794951
11	100860	1549332.706683566479	1547909.3813734
11	100940	1550750.106311591007	1550081.5717278
11	101011	1551979.338528272814	1549731.4626656
11	101020	1552096.204357410057	1549897.3716168
11	101170	1555017.812177583173	1553594.4868674
11	101185	1555168.983537105211	1554500.4489533
11	101237	1555939.781034192885	1553740.9482936
11	101248	1556007.378353570266	1553759.5024909
11	101305	1557578.041287527028	1556154.7159774
11	101437	1563925.796560870787	1561726.9638203
11	101494	1565019.411013543715	1564350.8764297
11	101555	1565841.586556629985	1563593.710694
11	101584	1566352.174490234912	1564928.8491801
11	101641	1567451.663175124473	1566783.1285913
11	101645	1567452.358524885795	1565253.5257843
11	101747	1568778.766627813196	1566530.8907652
11	101765	1568931.596665157349	1567508.271355
11	101844	1570132.48815483767	1569463.953571
11	101929	1570864.584369318678	1568665.7516287
11	101981	1571385.113237822222	1569961.7879277
11	102026	1571766.218111667568	1569518.342249
11	102097	1573161.916727084948	1570963.0839865
11	102106	1573266.99239453217	1572598.4578107
11	102171	1575260.788892513939	1573837.4635824
11	102311	1576933.053636129848	1574685.1777735
11	102322	1577077.673286931226	1574878.8405463
11	102377	1577693.98951499343	1577025.4549312
11	102388	1577969.63738268774	1576546.3120725
11	102481	1580257.272415352931	1578058.4396748
11	102528	1581230.522192750826	1578982.6463301
11	102634	1583801.469218175863	1583132.9346343
11	102700	1584805.491817731293	1583382.1665076
11	102737	1585181.954676060229	1582983.1219355
11	102771	1585520.296460330309	1583272.4205977
11	102802	1585762.786862382233	1585094.2522785
11	102919	1589026.245971689086	1586778.3701091
11	102987	1589686.109606366828	1587487.2768658
11	102999	1589789.485448859787	1588366.1601387
11	103015	1590359.822191652793	1589691.2876078
11	103075	1591598.584555737543	1589350.7086931
11	103205	1592963.192740510815	1590764.3599999
11	103237	1593441.259651427205	1592017.9343413
11	103294	1594608.317986428932	1593939.7834026
11	103375	1596369.232146078682	1594121.3562834
11	103426	1597043.976012507884	1594845.1432719
11	103440	1597164.47086996012	1595741.1455598
11	103546	1598320.463427787508	1597651.928844
11	103621	1601346.127396005595	1599098.2515334
11	103644	1601462.023170365215	1600038.6978602
11	103668	1602150.460071560359	1599951.627331
11	103702	1603032.55563822989	1602364.0210544
11	103805	1604407.383135274952	1602159.5072726
11	103880	1604984.133468477861	1603560.8081583
11	103929	1605405.299261654312	1603206.4665211
11	103953	1605684.298737057237	1605015.7641532
11	103992	1606164.540400693119	1603916.6645381
11	104108	1607753.648761859548	1606330.3234517
11	104130	1608060.453307957808	1605861.6205674
11	104244	1609043.347056759866	1606795.4711941
11	104269	1609216.291946641222	1608547.7573628
11	104333	1610020.500067551045	1608597.1747574
11	104337	1610032.449650229113	1607833.6169096
11	104427	1610966.033213095604	1608718.1573505
11	104483	1611917.035696156109	1611248.5011123
11	104497	1612228.624210419274	1610029.7914698
11	104673	1614978.085111444218	1613554.7598013
11	104705	1615159.752386348408	1612911.8765237
11	104717	1615208.810812820118	1613009.9780722
11	104751	1615621.810801486825	1614953.2762177
11	104808	1616765.683382461098	1615342.3580723
11	104839	1617251.850466581841	1615003.9746039
